@<TRIPOS>MOLECULE
PHE
  186   183     1     0     0
SMALL
No Charge or Current Charge


@<TRIPOS>ATOM
      1 CA         56.7900   30.6600  104.5900 c3       19 PHE      0.000000
      2 C          55.8400   29.8600  105.5000 c        19 PHE      0.000000
      3 O          55.8700   29.9900  106.7400 o        19 PHE      0.000000
      4 H01        57.7450   30.1400  104.5160 hc       19 PHE      0.000000
      5 H02        56.3500   30.7540  103.5970 hc       19 PHE      0.000000
      6 H03        56.9490   31.6520  105.0130 hc       19 PHE      0.000000
      7 N          54.9000   29.0400  104.9200 n        20 ASP      0.000000
      8 CA         53.9800   28.0900  105.6300 c3       20 ASP      0.000000
      9 C          54.5700   26.7200  105.9200 c        20 ASP      0.000000
     10 O          54.0000   25.9500  106.7300 o        20 ASP      0.000000
     11 CB         52.6100   28.0900  104.9200 c3       20 ASP      0.000000
     12 CG         52.5500   27.9000  103.4300 c        20 ASP      0.000000
     13 OD1        51.8500   26.9900  102.9500 o        20 ASP      0.000000
     14 OD2        53.3000   28.6100  102.6900 o        20 ASP      0.000000
     15 H          54.8100   29.0100  103.9100 hn       20 ASP      0.000000
     16 HA         53.8100   28.4600  106.6400 h1       20 ASP      0.000000
     17 HB1        52.1000   29.0300  105.1500 hc       20 ASP      0.000000
     18 HB2        52.1000   27.2200  105.3500 hc       20 ASP      0.000000
     19 N          55.6500   26.4200  105.2800 n        21 LYS      0.000000
     20 CA         56.3500   25.1800  105.4800 c3       21 LYS      0.000000
     21 C          57.2500   25.1800  106.7700 c        21 LYS      0.000000
     22 O          57.8100   26.2400  107.0100 o        21 LYS      0.000000
     23 CB         57.1700   24.7900  104.1800 c3       21 LYS      0.000000
     24 CG         56.3400   24.0700  103.0200 c3       21 LYS      0.000000
     25 CD         55.1500   24.9200  102.7500 c3       21 LYS      0.000000
     26 CE         54.4000   24.4600  101.4700 c3       21 LYS      0.000000
     27 NZ         53.4400   25.5100  101.0700 n4       21 LYS      0.000000
     28 H          55.9700   27.0900  104.6000 hn       21 LYS      0.000000
     29 HA         55.6500   24.3700  105.6800 h1       21 LYS      0.000000
     30 HB1        58.0100   24.1600  104.4700 hc       21 LYS      0.000000
     31 HB2        57.6000   25.6800  103.7200 hc       21 LYS      0.000000
     32 HG1        56.0700   23.0700  103.3400 hc       21 LYS      0.000000
     33 HG2        57.0200   23.9600  102.1700 hc       21 LYS      0.000000
     34 HD1        55.5200   25.9400  102.6500 hc       21 LYS      0.000000
     35 HD2        54.4800   24.8000  103.6000 hc       21 LYS      0.000000
     36 HE1        53.8800   23.5100  101.5900 hx       21 LYS      0.000000
     37 HE2        55.1500   24.3000  100.7000 hx       21 LYS      0.000000
     38 HZ1        54.0300   26.1100  100.5100 hn       21 LYS      0.000000
     39 HZ2        52.7900   25.1000  100.4100 hn       21 LYS      0.000000
     40 HZ3        52.9500   26.0000  101.8100 hn       21 LYS      0.000000
     41 N          57.4800   24.0900  107.4900 n        22 ASP      0.000000
     42 CA         56.9300   22.7100  107.5400 c3       22 ASP      0.000000
     43 C          56.7600   21.9900  106.1200 c        22 ASP      0.000000
     44 O          55.6100   21.7700  105.6800 o        22 ASP      0.000000
     45 CB         55.7000   22.5400  108.5000 c3       22 ASP      0.000000
     46 CG         55.9700   23.1400  109.8900 c        22 ASP      0.000000
     47 OD1        57.1300   23.3700  110.3000 o        22 ASP      0.000000
     48 OD2        55.0300   23.3000  110.7300 o        22 ASP      0.000000
     49 H          58.0100   24.3600  108.3000 hn       22 ASP      0.000000
     50 HA         57.7000   22.0600  107.9600 h1       22 ASP      0.000000
     51 HB1        55.6100   21.4500  108.6000 hc       22 ASP      0.000000
     52 HB2        54.8200   22.9800  108.0400 hc       22 ASP      0.000000
     53 N          57.8000   21.6100  105.3400 n        23 GLY      0.000000
     54 CA         59.1900   21.5100  105.8300 c3       23 GLY      0.000000
     55 C          59.9800   20.5400  105.0000 c        23 GLY      0.000000
     56 O          59.6000   20.1100  103.8900 o        23 GLY      0.000000
     57 H          57.6300   21.1000  104.4800 hn       23 GLY      0.000000
     58 HA1        59.3800   21.3600  106.8900 h1       23 GLY      0.000000
     59 HA2        59.6300   22.5000  105.7100 h1       23 GLY      0.000000
     60 N          61.0900   20.0000  105.5100 n        24 ASP      0.000000
     61 CA         61.7000   20.2000  106.8300 c3       24 ASP      0.000000
     62 C          61.2900   19.1000  107.8400 c        24 ASP      0.000000
     63 O          60.9700   18.0000  107.4200 o        24 ASP      0.000000
     64 CB         63.2300   20.2800  106.7900 c3       24 ASP      0.000000
     65 CG         63.8200   19.0900  106.0500 c        24 ASP      0.000000
     66 OD1        64.5900   18.3200  106.6300 o        24 ASP      0.000000
     67 OD2        63.7300   18.9700  104.8000 o        24 ASP      0.000000
     68 H          61.5300   19.3200  104.9100 hn       24 ASP      0.000000
     69 HA         61.3300   21.1400  107.2400 h1       24 ASP      0.000000
     70 HB1        63.5600   20.3600  107.8200 hc       24 ASP      0.000000
     71 HB2        63.5400   21.2100  106.3100 hc       24 ASP      0.000000
     72 N          61.3900   19.4200  109.1300 n        25 GLY      0.000000
     73 CA         61.1600   18.5300  110.2300 c3       25 GLY      0.000000
     74 C          59.7400   17.9600  110.2800 c        25 GLY      0.000000
     75 O          59.5500   16.8400  110.7900 o        25 GLY      0.000000
     76 H          61.6900   20.3000  109.5300 hn       25 GLY      0.000000
     77 HA1        61.3100   19.0800  111.1600 h1       25 GLY      0.000000
     78 HA2        61.8800   17.7100  110.2700 h1       25 GLY      0.000000
     79 N          58.8200   18.6400  109.5700 n        26 THR      0.000000
     80 CA         57.3900   18.3900  109.4400 c3       26 THR      0.000000
     81 C          56.9400   18.6300  108.0200 c        26 THR      0.000000
     82 O          57.5900   19.3900  107.3400 o        26 THR      0.000000
     83 CB         56.6400   19.2200  110.4500 c3       26 THR      0.000000
     84 CG2        56.8400   18.6700  111.8800 c3       26 THR      0.000000
     85 OG1        55.2500   19.0700  110.3200 oh       26 THR      0.000000
     86 H          59.0600   19.5500  109.2000 hn       26 THR      0.000000
     87 HA         57.1800   17.3400  109.5900 h1       26 THR      0.000000
     88 HB         56.9800   20.2500  110.4800 h1       26 THR      0.000000
     89 HG1        54.9200   19.7500  110.9100 ho       26 THR      0.000000
     90 HG21       56.4800   17.6500  111.8900 hc       26 THR      0.000000
     91 HG22       57.8800   18.7900  112.2000 hc       26 THR      0.000000
     92 HG23       56.4000   19.3800  112.5900 hc       26 THR      0.000000
     93 N          55.8900   18.0400  107.5100 n        27 ILE      0.000000
     94 CA         55.2400   18.2800  106.2100 c3       27 ILE      0.000000
     95 C          53.8400   18.9300  106.2100 c        27 ILE      0.000000
     96 O          53.1500   18.9900  105.2300 o        27 ILE      0.000000
     97 CB         55.2400   16.9100  105.5000 c3       27 ILE      0.000000
     98 CG1        54.5200   15.7400  106.2500 c3       27 ILE      0.000000
     99 CG2        56.6400   16.2800  105.0900 c3       27 ILE      0.000000
    100 CD         53.1000   16.0100  106.8100 c3       27 ILE      0.000000
    101 H          55.4200   17.4500  108.1900 hn       27 ILE      0.000000
    102 HA         55.8700   18.9200  105.5900 h1       27 ILE      0.000000
    103 HB         54.7100   16.9900  104.5500 hc       27 ILE      0.000000
    104 HG11       55.1500   15.5500  107.1300 hc       27 ILE      0.000000
    105 HG12       54.4800   14.8800  105.5800 hc       27 ILE      0.000000
    106 HG21       56.6400   15.2700  104.6900 hc       27 ILE      0.000000
    107 HG22       57.2300   16.8800  104.4100 hc       27 ILE      0.000000
    108 HG23       57.2300   16.1800  106.0000 hc       27 ILE      0.000000
    109 HD1        52.6800   15.0200  106.9700 hc       27 ILE      0.000000
    110 HD2        53.1100   16.6700  107.6700 hc       27 ILE      0.000000
    111 HD3        52.4500   16.4400  106.0400 hc       27 ILE      0.000000
    112 N          53.3200   19.3400  107.3800 n        28 THR      0.000000
    113 CA         51.8500   19.6700  107.5200 c3       28 THR      0.000000
    114 C          51.4200   21.0500  106.9400 c        28 THR      0.000000
    115 O          50.2400   21.3800  106.9600 o        28 THR      0.000000
    116 CB         51.4400   19.6100  108.9600 c3       28 THR      0.000000
    117 CG2        51.9200   20.7200  109.9100 c3       28 THR      0.000000
    118 OG1        51.8400   18.4300  109.7200 oh       28 THR      0.000000
    119 H          53.8100   18.9500  108.1600 hn       28 THR      0.000000
    120 HA         51.3300   18.9200  106.9200 h1       28 THR      0.000000
    121 HB         50.3600   19.6800  108.8700 h1       28 THR      0.000000
    122 HG1        51.9100   18.7200  110.6400 ho       28 THR      0.000000
    123 HG21       51.5300   20.5900  110.9200 hc       28 THR      0.000000
    124 HG22       53.0100   20.7500  109.9200 hc       28 THR      0.000000
    125 HG23       51.6400   21.6700  109.4700 hc       28 THR      0.000000
    126 N          52.3900   21.7600  106.3500 n        29 THR      0.000000
    127 CA         52.2400   23.1500  105.9300 c3       29 THR      0.000000
    128 C          51.5200   24.0500  106.9900 c        29 THR      0.000000
    129 O          51.3500   23.7700  108.1600 o        29 THR      0.000000
    130 CB         51.4600   23.1800  104.5400 c3       29 THR      0.000000
    131 CG2        51.9700   22.1400  103.4700 c3       29 THR      0.000000
    132 OG1        51.5400   24.4500  103.8900 oh       29 THR      0.000000
    133 H          53.3200   21.3700  106.2500 hn       29 THR      0.000000
    134 HA         53.2200   23.5800  105.7400 h1       29 THR      0.000000
    135 HB         50.3900   23.1000  104.7600 h1       29 THR      0.000000
    136 HG1        50.7700   24.4800  103.3100 ho       29 THR      0.000000
    137 HG21       52.9900   22.4200  103.1800 hc       29 THR      0.000000
    138 HG22       52.0400   21.1400  103.9000 hc       29 THR      0.000000
    139 HG23       51.3000   22.0700  102.6100 hc       29 THR      0.000000
    140 N          51.1700   25.2500  106.5700 n        30 LYS      0.000000
    141 CA         50.1500   26.1300  107.2600 c3       30 LYS      0.000000
    142 C          50.6300   27.2800  108.0900 c        30 LYS      0.000000
    143 O          49.8100   28.0000  108.6700 o        30 LYS      0.000000
    144 CB         49.0500   26.6300  106.2500 c3       30 LYS      0.000000
    145 CG         48.2700   25.5400  105.6600 c3       30 LYS      0.000000
    146 CD         47.2200   26.0000  104.6500 c3       30 LYS      0.000000
    147 CE         46.4900   24.8500  104.0400 c3       30 LYS      0.000000
    148 NZ         45.5000   25.3000  103.0300 n4       30 LYS      0.000000
    149 H          51.4100   25.4800  105.6100 hn       30 LYS      0.000000
    150 HA         49.6100   25.5300  107.9900 h1       30 LYS      0.000000
    151 HB1        49.5200   27.0900  105.3900 hc       30 LYS      0.000000
    152 HB2        48.2800   27.3000  106.6400 hc       30 LYS      0.000000
    153 HG1        47.7500   25.0300  106.4800 hc       30 LYS      0.000000
    154 HG2        48.9200   24.7700  105.2500 hc       30 LYS      0.000000
    155 HD1        47.7400   26.5100  103.8400 hc       30 LYS      0.000000
    156 HD2        46.5100   26.6400  105.1800 hc       30 LYS      0.000000
    157 HE1        46.0100   24.1400  104.7200 hx       30 LYS      0.000000
    158 HE2        47.2500   24.2600  103.5300 hx       30 LYS      0.000000
    159 HZ1        44.8600   24.5800  102.7200 hn       30 LYS      0.000000
    160 HZ2        44.9100   26.0300  103.4000 hn       30 LYS      0.000000
    161 HZ3        46.0300   25.6900  102.2600 hn       30 LYS      0.000000
    162 N          51.8600   27.5700  108.2700 n        31 GLU      0.000000
    163 CA         52.3400   28.6500  109.2100 c3       31 GLU      0.000000
    164 C          52.2400   30.1000  108.6700 c        31 GLU      0.000000
    165 O          53.0800   30.4400  107.8800 o        31 GLU      0.000000
    166 CB         53.7300   28.3100  109.6600 c3       31 GLU      0.000000
    167 CG         53.8100   27.0700  110.6500 c3       31 GLU      0.000000
    168 CD         55.1700   26.7000  111.2700 c        31 GLU      0.000000
    169 OE1        55.2800   26.7100  112.5600 o        31 GLU      0.000000
    170 OE2        56.2300   26.3700  110.6700 o        31 GLU      0.000000
    171 H          52.5800   27.0100  107.8400 hn       31 GLU      0.000000
    172 HA         51.7100   28.6800  110.1000 h1       31 GLU      0.000000
    173 HB1        54.1300   29.1200  110.2800 hc       31 GLU      0.000000
    174 HB2        54.4800   28.2200  108.8700 hc       31 GLU      0.000000
    175 HG1        53.3600   26.2400  110.1100 hc       31 GLU      0.000000
    176 HG2        53.2100   27.2600  111.5400 hc       31 GLU      0.000000
    177 N          51.1900   30.8600  108.9500 n        32 LEU      0.000000
    178 CA         50.9600   32.2000  108.4700 c3       32 LEU      0.000000
    179 H01        50.0850   32.6180  108.9680 h1       32 LEU      0.000000
    180 H02        51.8310   32.8190  108.6860 h1       32 LEU      0.000000
    181 H03        50.7890   32.1770  107.3940 h1       32 LEU      0.000000
    182 H          50.4100   30.5100  109.4800 hn       32 LEU      0.000000
    183 CA         57.1200   24.6400  112.4350 DU      186 CA       0.000000
    184 OW         57.3800   22.1600  113.4950 oh      401 HOH      0.000000
    185 HW1        58.1600   21.7400  113.8650 ho      401 HOH      0.000000
    186 HW2        56.6600   21.5800  113.7250 ho      401 HOH      0.000000
@<TRIPOS>BOND
     1    1    2 1   
     2    1    4 1   
     3    1    5 1   
     4    1    6 1   
     5    2    3 2   
     6    2    7 1   
     7    7    8 1   
     8    7   15 1   
     9    8    9 1   
    10    8   11 1   
    11    8   16 1   
    12    9   10 2   
    13    9   19 1   
    14   11   12 1   
    15   11   17 1   
    16   11   18 1   
    17   12   13 1   
    18   12   14 1   
    19   19   20 1   
    20   19   28 1   
    21   20   21 1   
    22   20   23 1   
    23   20   29 1   
    24   21   22 2   
    25   21   41 1   
    26   23   24 1   
    27   23   30 1   
    28   23   31 1   
    29   24   25 1   
    30   24   32 1   
    31   24   33 1   
    32   25   26 1   
    33   25   34 1   
    34   25   35 1   
    35   26   27 1   
    36   26   36 1   
    37   26   37 1   
    38   27   38 1   
    39   27   39 1   
    40   27   40 1   
    41   41   42 1   
    42   41   49 1   
    43   42   43 1   
    44   42   45 1   
    45   42   50 1   
    46   43   44 2   
    47   43   53 1   
    48   45   46 1   
    49   45   51 1   
    50   45   52 1   
    51   46   47 1   
    52   46   48 1   
    53   53   54 1   
    54   53   57 1   
    55   54   55 1   
    56   54   58 1   
    57   54   59 1   
    58   55   56 2   
    59   55   60 1   
    60   60   61 1   
    61   60   68 1   
    62   61   62 1   
    63   61   64 1   
    64   61   69 1   
    65   62   63 2   
    66   62   72 1   
    67   64   65 1   
    68   64   70 1   
    69   64   71 1   
    70   65   66 1   
    71   65   67 1   
    72   72   73 1   
    73   72   76 1   
    74   73   74 1   
    75   73   77 1   
    76   73   78 1   
    77   74   75 2   
    78   74   79 1   
    79   79   80 1   
    80   79   86 1   
    81   80   81 1   
    82   80   83 1   
    83   80   87 1   
    84   81   82 2   
    85   81   93 1   
    86   83   84 1   
    87   83   85 1   
    88   83   88 1   
    89   84   90 1   
    90   84   91 1   
    91   84   92 1   
    92   85   89 1   
    93   93   94 1   
    94   93  101 1   
    95   94   95 1   
    96   94   97 1   
    97   94  102 1   
    98   95   96 2   
    99   95  112 1   
   100   97   98 1   
   101   97   99 1   
   102   97  103 1   
   103   98  100 1   
   104   98  104 1   
   105   98  105 1   
   106   99  106 1   
   107   99  107 1   
   108   99  108 1   
   109  100  109 1   
   110  100  110 1   
   111  100  111 1   
   112  112  113 1   
   113  112  119 1   
   114  113  114 1   
   115  113  116 1   
   116  113  120 1   
   117  114  115 2   
   118  114  126 1   
   119  116  117 1   
   120  116  118 1   
   121  116  121 1   
   122  117  123 1   
   123  117  124 1   
   124  117  125 1   
   125  118  122 1   
   126  126  127 1   
   127  126  133 1   
   128  127  128 1   
   129  127  130 1   
   130  127  134 1   
   131  128  129 2   
   132  128  140 1   
   133  130  131 1   
   134  130  132 1   
   135  130  135 1   
   136  131  137 1   
   137  131  138 1   
   138  131  139 1   
   139  132  136 1   
   140  140  141 1   
   141  140  149 1   
   142  141  142 1   
   143  141  144 1   
   144  141  150 1   
   145  142  143 2   
   146  142  162 1   
   147  144  145 1   
   148  144  151 1   
   149  144  152 1   
   150  145  146 1   
   151  145  153 1   
   152  145  154 1   
   153  146  147 1   
   154  146  155 1   
   155  146  156 1   
   156  147  148 1   
   157  147  157 1   
   158  147  158 1   
   159  148  159 1   
   160  148  160 1   
   161  148  161 1   
   162  162  163 1   
   163  162  171 1   
   164  163  164 1   
   165  163  166 1   
   166  163  172 1   
   167  164  165 2   
   168  164  177 1   
   169  166  167 1   
   170  166  173 1   
   171  166  174 1   
   172  167  168 1   
   173  167  175 1   
   174  167  176 1   
   175  168  169 1   
   176  168  170 1   
   177  177  178 1   
   178  177  182 1   
   179  178  179 1   
   180  178  180 1   
   181  178  181 1   
   182  184  185 1   
   183  184  186 1   
@<TRIPOS>SUBSTRUCTURE
     1 PHE         1 TEMP              0 ****  ****    0 ROOT
