@<TRIPOS>MOLECULE
ALA
  180   179     1     0     0
SMALL
rc


@<TRIPOS>ATOM
      1 CA         49.8000   59.2800   30.9600 c3      128 ALA     -0.030014
      2 C          49.4500   58.8400   32.3900 c       128 ALA     -0.022982
      3 O          49.4800   59.6600   33.3200 o       128 ALA      0.029774
      4 H01        50.8370   59.0210   30.7440 hc      128 ALA      0.011917
      5 H02        49.1440   58.7730   30.2520 hc      128 ALA      0.011917
      6 H03        49.6690   60.3580   30.8690 hc      128 ALA      0.011917
      7 N          49.2600   57.5300   32.6800 n       129 ASP     -0.008488
      8 CA         49.0400   56.9800   34.0000 c3      129 ASP      0.064132
      9 C          50.3300   57.2600   34.8300 c       129 ASP      0.001466
     10 O          51.3800   56.8800   34.4000 o       129 ASP      0.074799
     11 CB         48.5800   55.4900   33.9100 c3      129 ASP     -0.210006
     12 CG         48.3400   54.8800   35.2400 c       129 ASP     -0.032189
     13 OD1        48.3600   53.6600   35.2900 o       129 ASP      0.065017
     14 OD2        48.0400   55.6200   36.1900 o       129 ASP      0.065017
     15 H          49.4100   56.8400   31.9600 hn      129 ASP     -0.000909
     16 HA         48.2300   57.5200   34.4900 h1      129 ASP      0.011724
     17 HB1        49.3300   54.8400   33.4700 hc      129 ASP      0.049822
     18 HB2        47.6900   55.4600   33.2800 hc      129 ASP      0.049822
     19 N          50.2200   57.9900   35.9100 n       130 ILE     -0.014717
     20 CA         51.3100   58.2100   36.8800 c3      130 ILE     -0.009281
     21 C          51.3200   57.0600   37.8900 c       130 ILE      0.000453
     22 O          52.4400   56.7800   38.3900 o       130 ILE      0.000715
     23 CB         51.1100   59.6300   37.5400 c3      130 ILE      0.030391
     24 CG1        51.4300   60.6400   36.4500 c3      130 ILE      0.010492
     25 CG2        51.9300   59.8900   38.7700 c3      130 ILE      0.011273
     26 CD         51.4900   62.0900   36.8400 c3      130 ILE     -0.012167
     27 H          49.2900   58.3600   36.0700 hn      130 ILE     -0.027412
     28 HA         52.2500   58.2000   36.3300 h1      130 ILE      0.001796
     29 HB         50.0700   59.8000   37.8200 hc      130 ILE     -0.054928
     30 HG11       50.6800   60.5500   35.6700 hc      130 ILE     -0.000757
     31 HG12       52.3800   60.3000   36.0400 hc      130 ILE     -0.000757
     32 HG21       52.9500   60.1100   38.4400 hc      130 ILE     -0.004132
     33 HG22       51.4200   60.6700   39.3300 hc      130 ILE     -0.004132
     34 HG23       52.0000   59.0300   39.4300 hc      130 ILE     -0.004132
     35 HD1        50.4900   62.4300   37.1200 hc      130 ILE      0.002613
     36 HD2        52.2000   62.1900   37.6600 hc      130 ILE      0.002613
     37 HD3        51.7800   62.7100   35.9900 hc      130 ILE      0.002613
     38 N          50.2400   56.3000   38.2100 n       131 ASP      0.035841
     39 CA         50.1500   55.4100   39.3900 c3      131 ASP      0.002708
     40 C          50.0300   53.8900   39.2700 c       131 ASP     -0.005201
     41 O          50.4600   53.1700   40.2200 o       131 ASP      0.001199
     42 CB         49.0000   55.8500   40.3400 c3      131 ASP      0.017916
     43 CG         47.6400   56.0900   39.5700 c       131 ASP     -0.023037
     44 OD1        47.4000   57.2500   39.1500 o       131 ASP      0.008437
     45 OD2        46.9300   55.1200   39.2300 o       131 ASP      0.008437
     46 H          49.3700   56.5700   37.7800 hn      131 ASP     -0.070231
     47 HA         51.1200   55.5300   39.8700 h1      131 ASP     -0.004262
     48 HB1        49.2100   56.7400   40.9200 hc      131 ASP     -0.003992
     49 HB2        48.9100   55.0600   41.0800 hc      131 ASP     -0.003992
     50 N          49.6300   53.3200   38.1300 n       132 GLY     -0.006889
     51 CA         49.5600   51.8600   37.9600 c3      132 GLY      0.017108
     52 C          48.1300   51.3500   37.7000 c       132 GLY     -0.001061
     53 O          48.0500   50.1200   37.5900 o       132 GLY      0.001035
     54 H          49.3400   53.9600   37.4000 hn      132 GLY      0.005313
     55 HA1        49.9800   51.3200   38.8000 h1      132 GLY     -0.008986
     56 HA2        50.1900   51.5500   37.1200 h1      132 GLY     -0.008986
     57 N          47.0900   52.0900   37.6400 n       133 ASP     -0.021035
     58 CA         45.7600   51.5400   37.2400 c3      133 ASP     -0.000767
     59 C          45.5100   51.3000   35.7500 c       133 ASP     -0.023524
     60 O          44.5800   50.6100   35.4400 o       133 ASP      0.088914
     61 CB         44.6200   52.3700   37.8200 c3      133 ASP     -0.037995
     62 CG         44.6800   53.8300   37.4200 c       133 ASP     -0.006323
     63 OD1        44.1100   54.6700   38.1200 o       133 ASP      0.009940
     64 OD2        45.3200   54.2100   36.3600 o       133 ASP      0.009940
     65 H          47.1800   53.0900   37.5700 hn      133 ASP      0.028536
     66 HA         45.6100   50.6200   37.8000 h1      133 ASP      0.005566
     67 HB1        44.7500   52.3100   38.9000 hc      133 ASP      0.009108
     68 HB2        43.6500   51.9700   37.5200 hc      133 ASP      0.009108
     69 N          46.2500   51.8600   34.8600 n       134 GLY     -0.007731
     70 CA         46.0400   51.8600   33.4000 c3      134 GLY     -0.011401
     71 C          44.7000   52.6000   33.0300 c       134 GLY      0.011343
     72 O          44.0200   52.1700   32.1300 o       134 GLY     -0.000831
     73 H          46.9900   52.4700   35.1900 hn      134 GLY      0.007064
     74 HA1        45.9500   50.8800   32.9200 h1      134 GLY      0.002328
     75 HA2        46.9100   52.3100   32.9400 h1      134 GLY      0.002328
     76 N          44.4600   53.7200   33.6800 n       135 GLN     -0.030293
     77 CA         43.2600   54.5600   33.3900 c3      135 GLN      0.024806
     78 C          43.6200   55.9700   33.6700 c       135 GLN     -0.051383
     79 O          44.1300   56.3100   34.7700 o       135 GLN      0.045358
     80 CB         42.1600   54.0700   34.3200 c3      135 GLN     -0.013270
     81 CG         41.6100   52.6100   34.0600 c3      135 GLN      0.005973
     82 CD         41.0100   52.5200   32.6700 c       135 GLN     -0.007094
     83 NE2        41.0100   51.4000   32.0100 n       135 GLN      0.001834
     84 OE1        40.3700   53.4600   32.1600 o       135 GLN      0.006502
     85 H          45.0600   53.9500   34.4600 hn      135 GLN      0.020486
     86 HA         42.8600   54.4900   32.3800 h1      135 GLN     -0.000972
     87 HB1        41.3800   54.8200   34.2700 hc      135 GLN      0.002554
     88 HB2        42.5400   54.0200   35.3500 hc      135 GLN      0.002554
     89 HG1        40.8000   52.3200   34.7300 hc      135 GLN     -0.000867
     90 HG2        42.4800   51.9500   34.1100 hc      135 GLN     -0.000867
     91 HE21       41.6100   50.6700   32.3800 hn      135 GLN     -0.000055
     92 HE22       40.5300   51.4100   31.1300 hn      135 GLN     -0.000055
     93 N          43.5000   56.8700   32.7000 n       136 VAL      0.027061
     94 CA         43.9700   58.2500   32.8200 c3      136 VAL     -0.009103
     95 C          42.8600   59.0300   33.5900 c       136 VAL      0.000130
     96 O          41.7700   59.1300   33.1200 o       136 VAL      0.000491
     97 CB         44.2400   58.9300   31.4400 c3      136 VAL      0.000953
     98 CG1        45.0800   60.1600   31.5800 c3      136 VAL      0.002476
     99 CG2        45.0000   57.9300   30.4800 c3      136 VAL      0.002476
    100 H          43.0800   56.6000   31.8300 hn      136 VAL     -0.004477
    101 HA         44.9200   58.2000   33.3500 h1      136 VAL     -0.011261
    102 HB         43.2900   59.2400   31.0100 hc      136 VAL      0.000340
    103 HG11       45.9800   59.9500   32.1600 hc      136 VAL     -0.000542
    104 HG12       45.2100   60.6800   30.6300 hc      136 VAL     -0.000542
    105 HG13       44.4200   60.8000   32.1700 hc      136 VAL     -0.000542
    106 HG21       44.4000   57.1400   30.0400 hc      136 VAL     -0.000542
    107 HG22       45.5800   58.5300   29.7700 hc      136 VAL     -0.000542
    108 HG23       45.8000   57.4200   31.0100 hc      136 VAL     -0.000542
    109 N          43.2000   59.5400   34.7400 n       137 ASN      0.007872
    110 CA         42.3800   60.5600   35.4400 c3      137 ASN      0.004143
    111 C          42.4800   61.9800   34.8100 c       137 ASN     -0.001207
    112 O          43.4900   62.2900   34.0600 o       137 ASN      0.000967
    113 CB         42.9800   60.5500   36.8300 c3      137 ASN      0.002140
    114 CG         42.1200   61.4400   37.7800 c       137 ASN      0.001136
    115 ND2        42.6300   61.6300   39.0400 n       137 ASN     -0.000226
    116 OD1        41.0500   62.0000   37.5600 o       137 ASN      0.000338
    117 H          44.1000   59.3000   35.1500 hn      137 ASN     -0.023699
    118 HA         41.3100   60.3400   35.4500 h1      137 ASN     -0.001575
    119 HB1        43.9600   61.0300   36.8100 hc      137 ASN     -0.000755
    120 HB2        43.0600   59.5100   37.1500 hc      137 ASN     -0.000755
    121 HD21       43.4900   61.1300   39.2200 hn      137 ASN     -0.000860
    122 HD22       42.1400   62.0100   39.8400 hn      137 ASN     -0.000860
    123 N          41.5900   62.8900   35.0800 n       138 TYR      0.000840
    124 CA         41.6900   64.2300   34.5400 c3      138 TYR     -0.000973
    125 C          42.9400   64.9300   34.8700 c       138 TYR     -0.004647
    126 O          43.5800   65.4100   33.9600 o       138 TYR      0.001553
    127 CB         40.4500   65.0400   35.0300 c3      138 TYR      0.006529
    128 CG         40.5300   66.4200   34.6300 ca      138 TYR     -0.000127
    129 CD1        40.3000   66.6900   33.2500 ca      138 TYR     -0.002067
    130 CD2        40.8100   67.4700   35.5500 ca      138 TYR     -0.002067
    131 CE1        40.2700   68.0100   32.8100 ca      138 TYR      0.006078
    132 CE2        40.8200   68.7600   35.0500 ca      138 TYR      0.006078
    133 CZ         40.5100   69.0300   33.6800 ca      138 TYR     -0.009097
    134 OH         40.4300   70.3600   33.3000 oh      138 TYR      0.007158
    135 H          40.9400   62.7300   35.8400 hn      138 TYR     -0.000697
    136 HA         41.5500   64.2400   33.4600 h1      138 TYR     -0.000643
    137 HB1        40.4000   65.0100   36.1200 hc      138 TYR     -0.001600
    138 HB2        39.5500   64.5700   34.6400 hc      138 TYR     -0.001600
    139 HD1        40.2100   65.8300   32.6000 ha      138 TYR      0.000555
    140 HD2        41.0400   67.2100   36.5700 ha      138 TYR      0.000555
    141 HE1        40.0800   68.2700   31.7800 ha      138 TYR     -0.003145
    142 HE2        40.9000   69.5900   35.7300 ha      138 TYR     -0.003145
    143 HH         40.5300   70.9100   34.0800 ho      138 TYR     -0.005593
    144 N          43.4500   64.8900   36.1100 n       139 GLU      0.009838
    145 CA         44.7900   65.5100   36.4600 c3      139 GLU     -0.008919
    146 C          45.9700   64.9200   35.7300 c       139 GLU     -0.002002
    147 O          46.8800   65.6500   35.3000 o       139 GLU      0.004577
    148 CB         44.9900   65.6400   37.9900 c3      139 GLU     -0.010434
    149 CG         44.6900   64.3500   38.7600 c3      139 GLU      0.007173
    150 CD         45.4600   64.4100   40.1100 c       139 GLU     -0.004352
    151 OE1        46.7000   64.3200   40.1100 o       139 GLU      0.001967
    152 OE2        44.7600   64.4600   41.1100 o       139 GLU      0.001967
    153 H          42.8300   64.6000   36.8500 hn      139 GLU     -0.001710
    154 HA         44.7000   66.5400   36.1100 h1      139 GLU      0.002438
    155 HB1        44.3500   66.4100   38.4100 hc      139 GLU      0.003011
    156 HB2        46.0000   66.0100   38.1700 hc      139 GLU      0.003011
    157 HG1        44.9300   63.4500   38.2100 hc      139 GLU     -0.001473
    158 HG2        43.6300   64.4100   38.9800 hc      139 GLU     -0.001473
    159 N          45.9600   63.6200   35.4400 n       140 GLU     -0.040214
    160 CA         46.9500   62.9100   34.6100 c3      140 GLU      0.118442
    161 C          47.0800   63.5400   33.1600 c       140 GLU     -0.022711
    162 O          48.1800   63.9700   32.7000 o       140 GLU      0.002607
    163 CB         46.8100   61.4300   34.6200 c3      140 GLU     -0.014044
    164 CG         46.9300   60.9200   36.0600 c3      140 GLU     -0.246521
    165 CD         46.7100   59.4300   36.0800 c       140 GLU     -0.089126
    166 OE1        47.5200   58.7200   36.6800 o       140 GLU      0.133548
    167 OE2        45.6600   58.8900   35.6800 o       140 GLU      0.133548
    168 H          45.1300   63.1000   35.6900 hn      140 GLU      0.012877
    169 HA         47.9100   63.1400   35.0700 h1      140 GLU     -0.031289
    170 HB1        47.6100   61.0500   33.9900 hc      140 GLU      0.010056
    171 HB2        45.8800   61.1000   34.1600 hc      140 GLU      0.010056
    172 HG1        46.3000   61.4400   36.7800 hc      140 GLU      0.065125
    173 HG2        47.9500   61.1600   36.3800 hc      140 GLU      0.065125
    174 N          45.8900   63.6000   32.5200 n       141 PHE     -0.003173
    175 CA         45.7600   64.2100   31.1700 c3      141 PHE      0.014532
    176 H01        45.1870   65.1340   31.2430 h1      141 PHE     -0.003116
    177 H02        46.7510   64.4280   30.7720 h1      141 PHE     -0.003116
    178 H03        45.2460   63.5160   30.5050 h1      141 PHE     -0.003116
    179 H          45.0500   63.3500   33.0200 hn      141 PHE     -0.001927
    180 CA         45.8100   56.6400   37.1600 DU      177 CA      -0.212031
@<TRIPOS>BOND
     1    1    2 1   
     2    1    4 1   
     3    1    5 1   
     4    1    6 1   
     5    2    3 2   
     6    2    7 1   
     7    7    8 1   
     8    7   15 1   
     9    8    9 1   
    10    8   11 1   
    11    8   16 1   
    12    9   10 2   
    13    9   19 1   
    14   11   12 1   
    15   11   17 1   
    16   11   18 1   
    17   12   13 1   
    18   12   14 1   
    19   19   20 1   
    20   19   27 1   
    21   20   21 1   
    22   20   23 1   
    23   20   28 1   
    24   21   22 2   
    25   21   38 1   
    26   23   24 1   
    27   23   25 1   
    28   23   29 1   
    29   24   26 1   
    30   24   30 1   
    31   24   31 1   
    32   25   32 1   
    33   25   33 1   
    34   25   34 1   
    35   26   35 1   
    36   26   36 1   
    37   26   37 1   
    38   38   39 1   
    39   38   46 1   
    40   39   40 1   
    41   39   42 1   
    42   39   47 1   
    43   40   41 2   
    44   40   50 1   
    45   42   43 1   
    46   42   48 1   
    47   42   49 1   
    48   43   44 1   
    49   43   45 1   
    50   50   51 1   
    51   50   54 1   
    52   51   52 1   
    53   51   55 1   
    54   51   56 1   
    55   52   53 2   
    56   52   57 1   
    57   57   58 1   
    58   57   65 1   
    59   58   59 1   
    60   58   61 1   
    61   58   66 1   
    62   59   60 2   
    63   59   69 1   
    64   61   62 1   
    65   61   67 1   
    66   61   68 1   
    67   62   63 1   
    68   62   64 1   
    69   69   70 1   
    70   69   73 1   
    71   70   71 1   
    72   70   74 1   
    73   70   75 1   
    74   71   72 2   
    75   71   76 1   
    76   76   77 1   
    77   76   85 1   
    78   77   78 1   
    79   77   80 1   
    80   77   86 1   
    81   78   79 2   
    82   78   93 1   
    83   80   81 1   
    84   80   87 1   
    85   80   88 1   
    86   81   82 1   
    87   81   89 1   
    88   81   90 1   
    89   82   83 1   
    90   82   84 2   
    91   83   91 1   
    92   83   92 1   
    93   93   94 1   
    94   93  100 1   
    95   94   95 1   
    96   94   97 1   
    97   94  101 1   
    98   95   96 2   
    99   95  109 1   
   100   97   98 1   
   101   97   99 1   
   102   97  102 1   
   103   98  103 1   
   104   98  104 1   
   105   98  105 1   
   106   99  106 1   
   107   99  107 1   
   108   99  108 1   
   109  109  110 1   
   110  109  117 1   
   111  110  111 1   
   112  110  113 1   
   113  110  118 1   
   114  111  112 2   
   115  111  123 1   
   116  113  114 1   
   117  113  119 1   
   118  113  120 1   
   119  114  115 1   
   120  114  116 2   
   121  115  121 1   
   122  115  122 1   
   123  123  124 1   
   124  123  135 1   
   125  124  125 1   
   126  124  127 1   
   127  124  136 1   
   128  125  126 2   
   129  125  144 1   
   130  127  128 1   
   131  127  137 1   
   132  127  138 1   
   133  128  129 ar  
   134  128  130 ar  
   135  129  131 ar  
   136  129  139 1   
   137  130  132 ar  
   138  130  140 1   
   139  131  133 ar  
   140  131  141 1   
   141  132  133 ar  
   142  132  142 1   
   143  133  134 1   
   144  134  143 1   
   145  144  145 1   
   146  144  153 1   
   147  145  146 1   
   148  145  148 1   
   149  145  154 1   
   150  146  147 2   
   151  146  159 1   
   152  148  149 1   
   153  148  155 1   
   154  148  156 1   
   155  149  150 1   
   156  149  157 1   
   157  149  158 1   
   158  150  151 1   
   159  150  152 1   
   160  159  160 1   
   161  159  168 1   
   162  160  161 1   
   163  160  163 1   
   164  160  169 1   
   165  161  162 2   
   166  161  174 1   
   167  163  164 1   
   168  163  170 1   
   169  163  171 1   
   170  164  165 1   
   171  164  172 1   
   172  164  173 1   
   173  165  166 1   
   174  165  167 1   
   175  174  175 1   
   176  174  179 1   
   177  175  176 1   
   178  175  177 1   
   179  175  178 1   
@<TRIPOS>SUBSTRUCTURE
     1 ALA         1 TEMP              0 ****  ****    0 ROOT
