@<TRIPOS>MOLECULE
VAL
  169   169     1     0     0
SMALL
rc


@<TRIPOS>ATOM
      1 CA         74.5900   21.1000   22.7800 c3       55 VAL      0.000566
      2 C          73.7900   21.6800   21.6100 c        55 VAL      0.004635
      3 O          74.1300   21.5300   20.4400 o        55 VAL     -0.000931
      4 H01        75.4930   21.6920   22.9310 hc       55 VAL     -0.000404
      5 H02        73.9830   21.1270   23.6850 hc       55 VAL     -0.000404
      6 H03        74.8660   20.0690   22.5570 hc       55 VAL     -0.000404
      7 N          72.5700   22.1200   21.8700 n        56 ASP     -0.021273
      8 CA         71.7200   22.6000   20.8200 c3       56 ASP      0.040382
      9 C          71.9800   24.0600   20.4000 c        56 ASP     -0.019452
     10 O          72.3200   24.9300   21.2700 o        56 ASP      0.009059
     11 CB         70.2700   22.4100   21.2700 c3       56 ASP     -0.036277
     12 CG         69.3500   22.8600   20.1600 c        56 ASP     -0.016075
     13 OD1        68.9200   24.0400   20.2000 o        56 ASP      0.019776
     14 OD2        69.2400   22.1200   19.1100 o        56 ASP      0.019776
     15 H          72.2500   22.1200   22.8300 hn       56 ASP      0.007164
     16 HA         71.8500   21.9400   19.9600 h1       56 ASP     -0.004711
     17 HB1        70.1600   23.1300   22.0800 hc       56 ASP      0.007838
     18 HB2        70.0600   21.4000   21.6400 hc       56 ASP      0.007838
     19 N          71.8400   24.3800   19.1000 n        57 ALA      0.009189
     20 CA         71.8100   25.7000   18.5100 c3       57 ALA     -0.004476
     21 C          70.7300   25.9000   17.4300 c        57 ALA      0.001571
     22 O          70.9000   26.7300   16.5700 o        57 ALA      0.002700
     23 CB         73.2000   26.1400   18.0700 c3       57 ALA      0.014226
     24 H          71.5600   23.5500   18.5900 hn       57 ALA     -0.011095
     25 HA         71.5200   26.3100   19.3600 h1       57 ALA     -0.002000
     26 HB1        73.8400   25.9300   18.9200 hc       57 ALA     -0.003601
     27 HB2        73.4900   25.4400   17.2900 hc       57 ALA     -0.003601
     28 HB3        73.2400   27.1900   17.7900 hc       57 ALA     -0.003601
     29 N          69.6100   25.1500   17.4600 n        58 ASP     -0.024355
     30 CA         68.4200   25.3500   16.5900 c3       58 ASP      0.053535
     31 C          67.0900   24.8900   17.2500 c        58 ASP     -0.028762
     32 O          66.1100   25.5000   16.8900 o        58 ASP      0.022091
     33 CB         68.6900   24.8400   15.1700 c3       58 ASP     -0.034710
     34 CG         69.0600   23.3500   15.2800 c        58 ASP     -0.011035
     35 OD1        68.4100   22.5100   15.9600 o        58 ASP      0.013268
     36 OD2        70.0900   22.9500   14.7300 o        58 ASP      0.013268
     37 H          69.5700   24.4800   18.2200 hn       58 ASP      0.007501
     38 HA         68.3500   26.4300   16.4600 h1       58 ASP     -0.010909
     39 HB1        69.5300   25.3700   14.7200 hc       58 ASP      0.006677
     40 HB2        67.8300   24.8400   14.5000 hc       58 ASP      0.006677
     41 N          67.0100   23.9400   18.1900 n        59 GLY      0.001782
     42 CA         65.7800   23.5000   18.7600 c3       59 GLY      0.006982
     43 C          65.0400   22.5000   17.8200 c        59 GLY     -0.015831
     44 O          63.8400   22.2500   17.9700 o        59 GLY      0.011908
     45 H          67.8700   23.5600   18.5600 hn       59 GLY     -0.000055
     46 HA1        65.1500   24.3600   18.9800 h1       59 GLY     -0.001911
     47 HA2        66.0200   22.9400   19.6700 h1       59 GLY     -0.001911
     48 N          65.7300   21.9200   16.7900 n        60 ASN      0.016933
     49 CA         64.9800   20.9700   15.8600 c3       60 ASN     -0.019392
     50 C          64.5700   19.6400   16.5600 c        60 ASN     -0.004426
     51 O          63.8700   18.8700   15.8900 o        60 ASN      0.005295
     52 CB         65.7800   20.8200   14.5100 c3       60 ASN      0.012256
     53 CG         67.0200   19.9600   14.6600 c        60 ASN     -0.038864
     54 ND2        67.7000   19.7500   13.5500 n        60 ASN      0.005566
     55 OD1        67.3900   19.4300   15.7100 o        60 ASN      0.062510
     56 H          66.7200   22.1100   16.7500 hn       60 ASN     -0.007895
     57 HA         64.1000   21.5400   15.5600 h1       60 ASN      0.003250
     58 HB1        66.0800   21.7800   14.1000 hc       60 ASN     -0.000716
     59 HB2        65.1100   20.3600   13.7900 hc       60 ASN     -0.000716
     60 HD21       67.4600   20.2500   12.7100 hn       60 ASN     -0.000360
     61 HD22       68.5800   19.2700   13.6200 hn       60 ASN     -0.000360
     62 N          64.8800   19.4400   17.8500 n        61 GLY      0.004441
     63 CA         64.6400   18.2400   18.5900 c3       61 GLY      0.000679
     64 C          65.6100   17.1300   18.4900 c        61 GLY     -0.003773
     65 O          65.3600   16.0300   19.0500 o        61 GLY      0.002419
     66 H          65.3600   20.2100   18.3000 hn       61 GLY     -0.003888
     67 HA1        63.7100   17.8100   18.2300 h1       61 GLY      0.000119
     68 HA2        64.4200   18.5100   19.6200 h1       61 GLY      0.000119
     69 N          66.7000   17.4300   17.8000 n        62 THR      0.007490
     70 CA         67.7400   16.3900   17.5100 c3       62 THR      0.021067
     71 C          69.2200   16.9400   17.5900 c        62 THR     -0.052303
     72 O          69.4500   18.0900   17.3900 o        62 THR      0.044379
     73 CB         67.4800   15.7000   16.1700 c3       62 THR     -0.005863
     74 CG2        66.3700   14.7200   16.1400 c3       62 THR     -0.001379
     75 OG1        67.3300   16.6400   15.1600 oh       62 THR      0.004558
     76 H          66.9300   18.4000   17.6200 hn       62 THR     -0.024370
     77 HA         67.6600   15.5600   18.2100 h1       62 THR     -0.002555
     78 HB         68.3900   15.1700   15.8900 h1       62 THR      0.001560
     79 HG1        67.3500   17.4900   15.6100 ho       62 THR     -0.008818
     80 HG21       66.2200   14.3100   15.1400 hc       62 THR      0.000398
     81 HG22       66.5600   14.0000   16.9400 hc       62 THR      0.000398
     82 HG23       65.4100   15.1600   16.4000 hc       62 THR      0.000398
     83 N          70.2100   16.0200   17.6700 n        63 ILE      0.029791
     84 CA         71.6200   16.2100   17.4300 c3       63 ILE     -0.010332
     85 C          71.9100   16.2500   15.9100 c        63 ILE     -0.007006
     86 O          71.8900   15.1700   15.3000 o        63 ILE      0.002454
     87 CB         72.6100   15.3700   18.3300 c3       63 ILE      0.010165
     88 CG1        72.6200   16.0100   19.7400 c3       63 ILE     -0.001625
     89 CG2        74.0500   15.1900   17.8400 c3       63 ILE     -0.002931
     90 CD         73.3200   15.2800   20.9000 c3       63 ILE     -0.001550
     91 H          69.8600   15.1100   17.9100 hn       63 ILE     -0.005804
     92 HA         71.8300   17.2500   17.6800 h1       63 ILE     -0.011363
     93 HB         72.1300   14.4000   18.4100 hc       63 ILE     -0.002297
     94 HG11       71.6000   16.2400   20.0600 hc       63 ILE      0.000888
     95 HG12       73.0900   16.9900   19.6600 hc       63 ILE      0.000888
     96 HG21       74.4800   16.1700   18.0200 hc       63 ILE      0.000326
     97 HG22       74.5500   14.4100   18.4200 hc       63 ILE      0.000326
     98 HG23       74.0500   14.9000   16.7900 hc       63 ILE      0.000326
     99 HD1        73.2400   15.9200   21.7800 hc       63 ILE      0.000454
    100 HD2        72.7200   14.3800   21.0700 hc       63 ILE      0.000454
    101 HD3        74.3100   15.0200   20.5300 hc       63 ILE      0.000454
    102 N          72.1300   17.3700   15.3500 n        64 ASP      0.007481
    103 CA         72.6800   17.4700   14.0300 c3       64 ASP      0.010667
    104 C          74.2300   17.3400   14.1100 c        64 ASP     -0.003612
    105 O          74.8000   17.4700   15.1600 o        64 ASP      0.000195
    106 CB         72.3800   18.8700   13.4300 c3       64 ASP     -0.033757
    107 CG         70.8900   19.1900   13.4800 c        64 ASP     -0.002847
    108 OD1        70.2500   19.5000   14.5200 o        64 ASP      0.010785
    109 OD2        70.3500   19.3600   12.3700 o        64 ASP      0.010785
    110 H          72.2300   18.1800   15.9400 hn       64 ASP     -0.003115
    111 HA         72.2800   16.7700   13.3000 h1       64 ASP     -0.002399
    112 HB1        72.7300   18.9700   12.4000 hc       64 ASP      0.007991
    113 HB2        72.8100   19.6700   14.0400 hc       64 ASP      0.007991
    114 N          74.8100   17.2300   12.9300 n        65 PHE      0.008869
    115 CA         76.2100   17.0400   12.7300 c3       65 PHE      0.003795
    116 C          77.2000   18.0900   13.3900 c        65 PHE      0.000744
    117 O          78.0800   17.6300   14.1600 o        65 PHE     -0.000290
    118 CB         76.5800   16.9600   11.2500 c3       65 PHE      0.000428
    119 CG         78.0400   16.4800   10.9800 ca       65 PHE     -0.000749
    120 CD1        78.5700   15.2200   11.3300 ca       65 PHE      0.000351
    121 CD2        78.8400   17.3100   10.1700 ca       65 PHE      0.000351
    122 CE1        79.9400   14.8700   11.1500 ca       65 PHE     -0.000051
    123 CE2        80.2400   16.9500    9.9700 ca       65 PHE     -0.000051
    124 CZ         80.7600   15.7600   10.4700 ca       65 PHE     -0.000063
    125 H          74.1800   17.1700   12.1400 hn       65 PHE     -0.015108
    126 HA         76.4200   16.1100   13.2500 h1       65 PHE     -0.001394
    127 HB1        76.3900   17.9500   10.8400 hc       65 PHE     -0.000306
    128 HB2        75.9200   16.2400   10.7600 hc       65 PHE     -0.000306
    129 HD1        77.9100   14.6400   11.9600 ha       65 PHE     -0.000192
    130 HD2        78.5000   18.2100    9.6800 ha       65 PHE     -0.000192
    131 HE1        80.4100   14.0100   11.6100 ha       65 PHE      0.000024
    132 HE2        80.9000   17.6400    9.4700 ha       65 PHE      0.000024
    133 HZ         81.7700   15.4100   10.3300 ha       65 PHE      0.000033
    134 N          77.0900   19.4100   13.1700 n        66 PRO     -0.004104
    135 CA         77.8600   20.3600   13.9700 c3       66 PRO      0.004840
    136 C          77.6600   20.4200   15.5300 c        66 PRO     -0.006148
    137 O          78.4200   21.0300   16.2200 o        66 PRO      0.000306
    138 CB         77.4500   21.7500   13.4300 c3       66 PRO     -0.001950
    139 CG         76.1000   21.5000   12.7000 c3       66 PRO     -0.001139
    140 CD         76.0700   20.0500   12.2700 c3       66 PRO      0.001969
    141 HA         78.9400   20.2700   13.8900 h1       66 PRO     -0.000557
    142 HB1        77.2800   22.5300   14.1600 hc       66 PRO      0.000523
    143 HB2        78.1500   22.0800   12.6600 hc       66 PRO      0.000523
    144 HG1        75.2300   21.6500   13.3400 hc       66 PRO      0.000326
    145 HG2        76.0400   22.2700   11.9200 hc       66 PRO      0.000326
    146 HD1        75.0500   19.6600   12.3000 h1       66 PRO     -0.000619
    147 HD2        76.5500   20.0100   11.2900 h1       66 PRO     -0.000619
    148 N          76.6600   19.7100   16.0600 n        67 GLU      0.011749
    149 CA         76.4500   19.4200   17.5000 c3       67 GLU      0.005962
    150 C          77.0100   18.0200   17.8000 c        67 GLU     -0.004603
    151 O          77.5500   17.8000   18.9200 o        67 GLU      0.000742
    152 CB         74.9500   19.4500   17.8300 c3       67 GLU      0.021947
    153 CG         74.3800   20.8200   17.4200 c3       67 GLU     -0.051308
    154 CD         72.7800   20.8700   17.3300 c        67 GLU     -0.047779
    155 OE1        72.1200   19.8600   17.0400 o        67 GLU      0.049725
    156 OE2        72.0600   21.8700   17.4300 o        67 GLU      0.049725
    157 H          76.0800   19.1300   15.4800 hn       67 GLU     -0.007444
    158 HA         77.0300   20.0800   18.1300 h1       67 GLU     -0.002665
    159 HB1        74.7900   19.4000   18.9100 hc       67 GLU     -0.004863
    160 HB2        74.5100   18.6100   17.3100 hc       67 GLU     -0.004863
    161 HG1        74.6600   21.1800   16.4300 hc       67 GLU      0.013592
    162 HG2        74.8500   21.5200   18.1100 hc       67 GLU      0.013592
    163 N          77.0300   17.0800   16.8900 n        68 PHE      0.001980
    164 CA         77.6100   15.7100   17.0500 c3       68 PHE     -0.001790
    165 H01        78.5640   15.7790   17.5730 h1       68 PHE      0.000483
    166 H02        76.9240   15.0900   17.6270 h1       68 PHE      0.000483
    167 H03        77.7660   15.2640   16.0680 h1       68 PHE      0.000483
    168 H          76.6800   17.2700   15.9600 hn       68 PHE     -0.001853
    169 CA         69.6800   20.5800   16.8600 DU      150 CA      -0.095442
@<TRIPOS>BOND
     1    1    2 1   
     2    1    4 1   
     3    1    5 1   
     4    1    6 1   
     5    2    3 2   
     6    2    7 1   
     7    7    8 1   
     8    7   15 1   
     9    8    9 1   
    10    8   11 1   
    11    8   16 1   
    12    9   10 2   
    13    9   19 1   
    14   11   12 1   
    15   11   17 1   
    16   11   18 1   
    17   12   13 1   
    18   12   14 1   
    19   19   20 1   
    20   19   24 1   
    21   20   21 1   
    22   20   23 1   
    23   20   25 1   
    24   21   22 2   
    25   21   29 1   
    26   23   26 1   
    27   23   27 1   
    28   23   28 1   
    29   29   30 1   
    30   29   37 1   
    31   30   31 1   
    32   30   33 1   
    33   30   38 1   
    34   31   32 2   
    35   31   41 1   
    36   33   34 1   
    37   33   39 1   
    38   33   40 1   
    39   34   35 1   
    40   34   36 1   
    41   41   42 1   
    42   41   45 1   
    43   42   43 1   
    44   42   46 1   
    45   42   47 1   
    46   43   44 2   
    47   43   48 1   
    48   48   49 1   
    49   48   56 1   
    50   49   50 1   
    51   49   52 1   
    52   49   57 1   
    53   50   51 2   
    54   50   62 1   
    55   52   53 1   
    56   52   58 1   
    57   52   59 1   
    58   53   54 1   
    59   53   55 2   
    60   54   60 1   
    61   54   61 1   
    62   62   63 1   
    63   62   66 1   
    64   63   64 1   
    65   63   67 1   
    66   63   68 1   
    67   64   65 2   
    68   64   69 1   
    69   69   70 1   
    70   69   76 1   
    71   70   71 1   
    72   70   73 1   
    73   70   77 1   
    74   71   72 2   
    75   71   83 1   
    76   73   74 1   
    77   73   75 1   
    78   73   78 1   
    79   74   80 1   
    80   74   81 1   
    81   74   82 1   
    82   75   79 1   
    83   83   84 1   
    84   83   91 1   
    85   84   85 1   
    86   84   87 1   
    87   84   92 1   
    88   85   86 2   
    89   85  102 1   
    90   87   88 1   
    91   87   89 1   
    92   87   93 1   
    93   88   90 1   
    94   88   94 1   
    95   88   95 1   
    96   89   96 1   
    97   89   97 1   
    98   89   98 1   
    99   90   99 1   
   100   90  100 1   
   101   90  101 1   
   102  102  103 1   
   103  102  110 1   
   104  103  104 1   
   105  103  106 1   
   106  103  111 1   
   107  104  105 2   
   108  104  114 1   
   109  106  107 1   
   110  106  112 1   
   111  106  113 1   
   112  107  108 1   
   113  107  109 1   
   114  114  115 1   
   115  114  125 1   
   116  115  116 1   
   117  115  118 1   
   118  115  126 1   
   119  116  117 2   
   120  116  134 1   
   121  118  119 1   
   122  118  127 1   
   123  118  128 1   
   124  119  120 ar  
   125  119  121 ar  
   126  120  122 ar  
   127  120  129 1   
   128  121  123 ar  
   129  121  130 1   
   130  122  124 ar  
   131  122  131 1   
   132  123  124 ar  
   133  123  132 1   
   134  124  133 1   
   135  134  135 1   
   136  134  140 1   
   137  135  136 1   
   138  135  138 1   
   139  135  141 1   
   140  136  137 2   
   141  136  148 1   
   142  138  139 1   
   143  138  142 1   
   144  138  143 1   
   145  139  140 1   
   146  139  144 1   
   147  139  145 1   
   148  140  146 1   
   149  140  147 1   
   150  148  149 1   
   151  148  157 1   
   152  149  150 1   
   153  149  152 1   
   154  149  158 1   
   155  150  151 2   
   156  150  163 1   
   157  152  153 1   
   158  152  159 1   
   159  152  160 1   
   160  153  154 1   
   161  153  161 1   
   162  153  162 1   
   163  154  155 1   
   164  154  156 1   
   165  163  164 1   
   166  163  168 1   
   167  164  165 1   
   168  164  166 1   
   169  164  167 1   
@<TRIPOS>SUBSTRUCTURE
     1 VAL         1 TEMP              0 ****  ****    0 ROOT
