@<TRIPOS>MOLECULE
PHE
  173   172     1     0     0
SMALL
rc


@<TRIPOS>ATOM
      1 CA         96.5200   -0.5400   39.8900 c3       92 PHE      0.001445
      2 C          95.6400   -1.7200   39.4900 c        92 PHE     -0.000797
      3 O          95.4800   -2.7100   40.1500 o        92 PHE      0.001411
      4 H01        97.4410   -0.5600   39.3070 hc       92 PHE     -0.000420
      5 H02        95.9890    0.3920   39.6960 hc       92 PHE     -0.000420
      6 H03        96.7600   -0.6080   40.9510 hc       92 PHE     -0.000420
      7 N          95.2000   -1.7300   38.2800 n        93 ASP     -0.000596
      8 CA         94.3900   -2.8600   37.7500 c3       93 ASP      0.013738
      9 C          95.2600   -3.7700   36.8600 c        93 ASP     -0.006457
     10 O          95.9100   -3.2900   35.9200 o        93 ASP      0.003241
     11 CB         93.2400   -2.2100   36.8400 c3       93 ASP     -0.025312
     12 CG         92.3800   -3.2200   36.1400 c        93 ASP     -0.004847
     13 OD1        92.5700   -4.4900   36.2500 o        93 ASP      0.008735
     14 OD2        91.5200   -2.8500   35.3300 o        93 ASP      0.008735
     15 H          95.4100   -0.9600   37.6500 hn       93 ASP      0.000242
     16 HA         93.9400   -3.4600   38.5400 h1       93 ASP     -0.008824
     17 HB1        93.8100   -1.6900   36.0700 hc       93 ASP      0.006321
     18 HB2        92.6400   -1.5300   37.4500 hc       93 ASP      0.006321
     19 N          95.4300   -4.9900   37.3800 n        94 LYS      0.009448
     20 CA         96.4700   -5.8900   36.9400 c3       94 LYS     -0.008874
     21 C          96.1500   -6.7100   35.7300 c        94 LYS      0.003036
     22 O          97.0700   -7.3500   35.1600 o        94 LYS     -0.000578
     23 CB         96.9800   -6.8000   38.0900 c3       94 LYS      0.011125
     24 CG         97.3700   -6.0700   39.3800 c3       94 LYS     -0.000139
     25 CD         98.7400   -5.2300   39.1200 c3       94 LYS     -0.000547
     26 CE         99.1400   -4.5600   40.4300 c3       94 LYS     -0.000043
     27 NZ        100.2600   -3.5500   40.2800 n4       94 LYS     -0.000310
     28 H          94.8000   -5.2500   38.1300 hn       94 LYS     -0.008584
     29 HA         97.3700   -5.3300   36.7100 h1       94 LYS      0.001335
     30 HB1        97.8300   -7.3900   37.7500 hc       94 LYS     -0.003442
     31 HB2        96.1400   -7.4800   38.2500 hc       94 LYS     -0.003442
     32 HG1        97.4600   -6.7600   40.2200 hc       94 LYS     -0.000707
     33 HG2        96.5400   -5.4400   39.7200 hc       94 LYS     -0.000707
     34 HD1        98.5400   -4.4400   38.4100 hc       94 LYS      0.000028
     35 HD2        99.5700   -5.7700   38.6500 hc       94 LYS      0.000028
     36 HE1        99.5000   -5.3500   41.0900 hx       94 LYS      0.000136
     37 HE2        98.2000   -4.2600   40.9000 hx       94 LYS      0.000136
     38 HZ1       100.0100   -2.7100   39.7900 hn       94 LYS      0.000078
     39 HZ2       100.6300   -3.3100   41.1800 hn       94 LYS      0.000078
     40 HZ3       100.9900   -3.9400   39.6900 hn       94 LYS      0.000078
     41 N          94.8900   -6.6900   35.3100 n        95 ASP     -0.010592
     42 CA         94.2600   -7.2000   34.0900 c3       95 ASP      0.032572
     43 C          93.8900   -6.0700   33.1300 c        95 ASP     -0.014636
     44 O          93.6800   -6.4000   31.9700 o        95 ASP      0.002846
     45 CB         93.0300   -8.0700   34.3200 c3       95 ASP     -0.066826
     46 CG         91.8500   -7.4300   35.0500 c        95 ASP      0.001676
     47 OD1        91.3100   -6.4700   34.4900 o        95 ASP      0.017241
     48 OD2        91.7600   -7.5100   36.3000 o        95 ASP      0.017241
     49 H          94.2200   -6.1000   35.7900 hn       95 ASP      0.006508
     50 HA         94.9500   -7.8700   33.5700 h1       95 ASP     -0.004113
     51 HB1        93.3500   -8.8400   35.0200 hc       95 ASP      0.015248
     52 HB2        92.6900   -8.6300   33.4500 hc       95 ASP      0.015248
     53 N          93.8100   -4.7900   33.5400 n        96 GLY      0.002774
     54 CA         93.5900   -3.5600   32.7400 c3       96 GLY      0.000647
     55 C          92.1900   -3.3600   32.1600 c        96 GLY      0.002530
     56 O          92.0100   -2.4300   31.4100 o        96 GLY      0.000492
     57 H          93.7900   -4.6400   34.5400 hn       96 GLY      0.001865
     58 HA1        94.2100   -3.4700   31.8400 h1       96 GLY     -0.000884
     59 HA2        93.7400   -2.7300   33.4300 h1       96 GLY     -0.000884
     60 N          91.1500   -4.1800   32.5400 n        97 ASN     -0.014190
     61 CA         89.8000   -4.0700   32.0800 c3       97 ASN     -0.002924
     62 C          88.9600   -2.8600   32.5600 c        97 ASN     -0.013527
     63 O          87.7500   -2.8500   32.3700 o        97 ASN      0.011959
     64 CB         88.9600   -5.3600   32.2200 c3       97 ASN      0.017366
     65 CG         88.5000   -5.8000   33.5600 c        97 ASN     -0.045403
     66 ND2        88.0500   -6.9900   33.6000 n        97 ASN      0.011691
     67 OD1        88.6300   -5.1700   34.6000 o        97 ASN      0.051887
     68 H          91.3200   -4.8400   33.2900 hn       97 ASN      0.013063
     69 HA         89.8800   -3.9300   31.0000 h1       97 ASN      0.001895
     70 HB1        89.5100   -6.1100   31.6600 hc       97 ASN     -0.002309
     71 HB2        88.0900   -5.4400   31.5700 hc       97 ASN     -0.002309
     72 HD21       88.1400   -7.4700   32.7200 hn       97 ASN     -0.001927
     73 HD22       87.9400   -7.3800   34.5300 hn       97 ASN     -0.001927
     74 N          89.5000   -1.8400   33.2300 n        98 GLY      0.006091
     75 CA         88.9700   -0.4400   33.3700 c3       98 GLY      0.006196
     76 C          88.1100   -0.3400   34.6800 c        98 GLY     -0.008967
     77 O          87.5600    0.6900   34.9700 o        98 GLY      0.000176
     78 H          90.4200   -2.0700   33.5800 hn       98 GLY     -0.004897
     79 HA1        88.4600   -0.0800   32.4800 h1       98 GLY     -0.001461
     80 HA2        89.9200    0.0900   33.3200 h1       98 GLY     -0.001461
     81 N          87.8800   -1.4000   35.4900 n        99 TYR      0.026877
     82 CA         87.2100   -1.4700   36.7400 c3       99 TYR      0.010336
     83 C          87.9800   -2.3800   37.7000 c        99 TYR     -0.065706
     84 O          88.5500   -3.3600   37.3000 o        99 TYR      0.051619
     85 CB         85.7400   -2.0800   36.5000 c3       99 TYR      0.000836
     86 CG         84.7800   -1.5500   35.4300 ca       99 TYR      0.000552
     87 CD1        84.6700   -2.1400   34.1500 ca       99 TYR     -0.000560
     88 CD2        83.8800   -0.5200   35.8000 ca       99 TYR     -0.000560
     89 CE1        83.6800   -1.6000   33.2300 ca       99 TYR      0.000704
     90 CE2        82.8600   -0.1000   34.9500 ca       99 TYR      0.000704
     91 CZ         82.7600   -0.6000   33.6000 ca       99 TYR     -0.001027
     92 OH         81.8700   -0.0800   32.7100 oh       99 TYR      0.000155
     93 H          88.3700   -2.2400   35.2300 hn       99 TYR     -0.033177
     94 HA         87.2200   -0.4800   37.1800 h1       99 TYR     -0.000992
     95 HB1        85.2500   -1.8800   37.4600 hc       99 TYR     -0.000954
     96 HB2        85.8200   -3.1200   36.2000 hc       99 TYR     -0.000954
     97 HD1        85.4000   -2.8700   33.8400 ha       99 TYR     -0.000423
     98 HD2        83.9400   -0.1700   36.8200 ha       99 TYR     -0.000423
     99 HE1        83.6800   -2.0600   32.2500 ha       99 TYR      0.000075
    100 HE2        82.1800    0.6600   35.3100 ha       99 TYR      0.000075
    101 HH         81.5500    0.7900   32.9200 ho       99 TYR      0.000017
    102 N          87.9500   -2.2000   39.0100 n       100 ILE      0.040110
    103 CA         88.5100   -3.0100   40.1000 c3      100 ILE     -0.018971
    104 C          87.3800   -3.1900   41.1300 c       100 ILE     -0.034179
    105 O          86.6200   -2.2700   41.3500 o       100 ILE      0.031724
    106 CB         89.9100   -2.6000   40.6600 c3      100 ILE      0.008662
    107 CG1        89.9700   -1.1000   41.2200 c3      100 ILE     -0.002383
    108 CG2        90.9600   -2.8300   39.6700 c3      100 ILE      0.006699
    109 CD         91.1900   -0.5200   41.9000 c3      100 ILE     -0.003056
    110 H          87.4600   -1.3700   39.3200 hn      100 ILE     -0.005843
    111 HA         88.7100   -3.9800   39.6300 h1      100 ILE      0.000213
    112 HB         90.2500   -3.2600   41.4600 hc      100 ILE     -0.004831
    113 HG11       89.2500   -1.2600   42.0300 hc      100 ILE      0.001087
    114 HG12       89.5900   -0.4000   40.4800 hc      100 ILE      0.001087
    115 HG21       90.8500   -2.2200   38.7700 hc      100 ILE     -0.001760
    116 HG22       91.8600   -2.2800   39.9400 hc      100 ILE     -0.001760
    117 HG23       91.0400   -3.8700   39.3400 hc      100 ILE     -0.001760
    118 HD1        92.0500   -0.6100   41.2200 hc      100 ILE      0.000897
    119 HD2        91.1000    0.5400   42.1200 hc      100 ILE      0.000897
    120 HD3        91.4200   -1.0300   42.8300 hc      100 ILE      0.000897
    121 N          87.2200   -4.4300   41.6100 n       101 SER      0.017503
    122 CA         86.3500   -4.8200   42.7300 c3      101 SER     -0.009578
    123 C          87.0900   -4.6100   43.9900 c       101 SER      0.004465
    124 O          88.3000   -4.4200   43.9500 o       101 SER     -0.000070
    125 CB         86.0300   -6.3100   42.5400 c3      101 SER      0.002850
    126 OG         87.2400   -7.1500   42.4800 oh      101 SER      0.002216
    127 H          87.8400   -5.1400   41.2400 hn      101 SER     -0.006512
    128 HA         85.3900   -4.3100   42.7600 h1      101 SER     -0.000436
    129 HB1        85.5100   -6.4600   41.5900 h1      101 SER     -0.000516
    130 HB2        85.3700   -6.6300   43.3400 h1      101 SER     -0.000516
    131 HG         87.8100   -6.9000   41.7500 ho      101 SER     -0.004117
    132 N          86.4700   -4.6100   45.1800 n       102 ALA     -0.003312
    133 CA         87.2200   -4.3100   46.4500 c3      102 ALA      0.000730
    134 C          88.3400   -5.3500   46.6200 c       102 ALA     -0.002684
    135 O          89.4300   -4.9700   47.1000 o       102 ALA      0.001907
    136 CB         86.2800   -4.2000   47.6800 c3      102 ALA     -0.001299
    137 H          85.4600   -4.6600   45.2600 hn      102 ALA      0.001381
    138 HA         87.6500   -3.3400   46.2200 h1      102 ALA     -0.000078
    139 HB1        86.8500   -3.9900   48.5900 hc      102 ALA      0.000543
    140 HB2        85.5700   -3.4000   47.4900 hc      102 ALA      0.000543
    141 HB3        85.7300   -5.1000   47.9400 hc      102 ALA      0.000543
    142 N          88.1700   -6.6400   46.3400 n       103 ALA      0.001800
    143 CA         89.2100   -7.6600   46.3600 c3      103 ALA     -0.001281
    144 C          90.4400   -7.3800   45.4800 c       103 ALA      0.000364
    145 O          91.6400   -7.6600   45.8000 o       103 ALA     -0.000458
    146 CB         88.6000   -9.0000   45.8800 c3      103 ALA      0.001405
    147 H          87.2400   -6.9200   46.0700 hn      103 ALA     -0.000280
    148 HA         89.5900   -7.7900   47.3800 h1      103 ALA      0.000547
    149 HB1        89.3000   -9.8000   46.1200 hc      103 ALA     -0.000202
    150 HB2        87.6500   -9.2100   46.3700 hc      103 ALA     -0.000202
    151 HB3        88.3100   -9.0200   44.8300 hc      103 ALA     -0.000202
    152 N          90.2000   -6.6700   44.3400 n       104 GLU     -0.000228
    153 CA         91.3200   -6.0800   43.5800 c3      104 GLU     -0.000143
    154 C          91.9700   -4.7500   44.1500 c       104 GLU     -0.002624
    155 O          93.1900   -4.6200   44.2500 o       104 GLU      0.000506
    156 CB         90.8800   -5.7600   42.1700 c3      104 GLU      0.005970
    157 CG         90.5200   -7.0400   41.3400 c3      104 GLU     -0.023721
    158 CD         89.9400   -6.5800   40.0200 c       104 GLU     -0.013346
    159 OE1        88.6900   -6.4000   39.9500 o       104 GLU      0.019897
    160 OE2        90.6500   -6.1700   39.0500 o       104 GLU      0.019897
    161 H          89.2300   -6.4500   44.2100 hn      104 GLU     -0.000764
    162 HA         92.1700   -6.7500   43.5000 h1      104 GLU      0.000465
    163 HB1        91.6500   -5.3100   41.5500 hc      104 GLU      0.001246
    164 HB2        89.9600   -5.2000   42.3600 hc      104 GLU      0.001246
    165 HG1        89.8700   -7.7200   41.8800 hc      104 GLU      0.006491
    166 HG2        91.4300   -7.5800   41.1200 hc      104 GLU      0.006491
    167 N          91.1700   -3.8100   44.7200 n       105 LEU      0.001510
    168 CA         91.7000   -2.6100   45.3900 c3      105 LEU      0.000888
    169 H01        92.6230   -2.2990   44.9000 h1      105 LEU     -0.000287
    170 H02        90.9670   -1.8050   45.3290 h1      105 LEU     -0.000287
    171 H03        91.9040   -2.8370   46.4360 h1      105 LEU     -0.000287
    172 H          90.1700   -3.9400   44.6600 hn      105 LEU     -0.000542
    173 CA         90.1900   -5.4320   36.6800 DU      151 CA      -0.070563
@<TRIPOS>BOND
     1    1    2 1   
     2    1    4 1   
     3    1    5 1   
     4    1    6 1   
     5    2    3 2   
     6    2    7 1   
     7    7    8 1   
     8    7   15 1   
     9    8    9 1   
    10    8   11 1   
    11    8   16 1   
    12    9   10 2   
    13    9   19 1   
    14   11   12 1   
    15   11   17 1   
    16   11   18 1   
    17   12   13 1   
    18   12   14 1   
    19   19   20 1   
    20   19   28 1   
    21   20   21 1   
    22   20   23 1   
    23   20   29 1   
    24   21   22 2   
    25   21   41 1   
    26   23   24 1   
    27   23   30 1   
    28   23   31 1   
    29   24   25 1   
    30   24   32 1   
    31   24   33 1   
    32   25   26 1   
    33   25   34 1   
    34   25   35 1   
    35   26   27 1   
    36   26   36 1   
    37   26   37 1   
    38   27   38 1   
    39   27   39 1   
    40   27   40 1   
    41   41   42 1   
    42   41   49 1   
    43   42   43 1   
    44   42   45 1   
    45   42   50 1   
    46   43   44 2   
    47   43   53 1   
    48   45   46 1   
    49   45   51 1   
    50   45   52 1   
    51   46   47 1   
    52   46   48 1   
    53   53   54 1   
    54   53   57 1   
    55   54   55 1   
    56   54   58 1   
    57   54   59 1   
    58   55   56 2   
    59   55   60 1   
    60   60   61 1   
    61   60   68 1   
    62   61   62 1   
    63   61   64 1   
    64   61   69 1   
    65   62   63 2   
    66   62   74 1   
    67   64   65 1   
    68   64   70 1   
    69   64   71 1   
    70   65   66 1   
    71   65   67 2   
    72   66   72 1   
    73   66   73 1   
    74   74   75 1   
    75   74   78 1   
    76   75   76 1   
    77   75   79 1   
    78   75   80 1   
    79   76   77 2   
    80   76   81 1   
    81   81   82 1   
    82   81   93 1   
    83   82   83 1   
    84   82   85 1   
    85   82   94 1   
    86   83   84 2   
    87   83  102 1   
    88   85   86 1   
    89   85   95 1   
    90   85   96 1   
    91   86   87 ar  
    92   86   88 ar  
    93   87   89 ar  
    94   87   97 1   
    95   88   90 ar  
    96   88   98 1   
    97   89   91 ar  
    98   89   99 1   
    99   90   91 ar  
   100   90  100 1   
   101   91   92 1   
   102   92  101 1   
   103  102  103 1   
   104  102  110 1   
   105  103  104 1   
   106  103  106 1   
   107  103  111 1   
   108  104  105 2   
   109  104  121 1   
   110  106  107 1   
   111  106  108 1   
   112  106  112 1   
   113  107  109 1   
   114  107  113 1   
   115  107  114 1   
   116  108  115 1   
   117  108  116 1   
   118  108  117 1   
   119  109  118 1   
   120  109  119 1   
   121  109  120 1   
   122  121  122 1   
   123  121  127 1   
   124  122  123 1   
   125  122  125 1   
   126  122  128 1   
   127  123  124 2   
   128  123  132 1   
   129  125  126 1   
   130  125  129 1   
   131  125  130 1   
   132  126  131 1   
   133  132  133 1   
   134  132  137 1   
   135  133  134 1   
   136  133  136 1   
   137  133  138 1   
   138  134  135 2   
   139  134  142 1   
   140  136  139 1   
   141  136  140 1   
   142  136  141 1   
   143  142  143 1   
   144  142  147 1   
   145  143  144 1   
   146  143  146 1   
   147  143  148 1   
   148  144  145 2   
   149  144  152 1   
   150  146  149 1   
   151  146  150 1   
   152  146  151 1   
   153  152  153 1   
   154  152  161 1   
   155  153  154 1   
   156  153  156 1   
   157  153  162 1   
   158  154  155 2   
   159  154  167 1   
   160  156  157 1   
   161  156  163 1   
   162  156  164 1   
   163  157  158 1   
   164  157  165 1   
   165  157  166 1   
   166  158  159 1   
   167  158  160 1   
   168  167  168 1   
   169  167  172 1   
   170  168  169 1   
   171  168  170 1   
   172  168  171 1   
@<TRIPOS>SUBSTRUCTURE
     1 PHE         1 TEMP              0 ****  ****    0 ROOT
