@<TRIPOS>MOLECULE
MOL
  198   191     1     0     0
SMALL
resp


@<TRIPOS>ATOM
      1 C1          6.4390    1.9780    5.6360 c3        1 MOL     -0.260727
      2 C2          5.6350    1.5260    4.4030 c         1 MOL      0.767167
      3 O1          5.2150    2.3580    3.6070 o         1 MOL     -0.624553
      4 H1          5.7870    1.9880    6.5100 hc        1 MOL      0.064572
      5 H2          7.2630    1.2860    5.8060 hc        1 MOL      0.064572
      6 H3          6.8340    2.9800    5.4660 hc        1 MOL      0.064572
      7 N1          5.3930    0.2330    4.2150 n         1 MOL     -0.577233
      8 C3          4.9400   -0.2840    2.9040 c3        1 MOL      0.359590
      9 C4          3.4960   -0.0370    2.4830 c         1 MOL     -0.065123
     10 O2          3.0610   -0.4180    1.4300 o         1 MOL     -0.159103
     11 C5          5.2340   -1.8370    2.6960 c3        1 MOL     -0.163031
     12 C6          6.6870   -2.2210    2.9550 c         1 MOL      0.664256
     13 O3          7.4000   -2.6450    1.9890 o         1 MOL     -0.687040
     14 O4          7.1260   -2.1060    4.0960 o         1 MOL     -0.687040
     15 H4          5.6970   -0.4150    4.9330 hn        1 MOL      0.265339
     16 H5          5.5670    0.2250    2.1610 h1        1 MOL      0.077329
     17 H6          5.0280   -2.2100    1.6820 hc        1 MOL     -0.014475
     18 H7          4.5770   -2.3090    3.4240 hc        1 MOL     -0.014475
     19 N2          2.6700    0.4810    3.4120 n         1 MOL     -0.103691
     20 C7          1.2070    0.5880    3.3460 c3        1 MOL     -0.026938
     21 C8          0.8130    1.8860    2.6670 c         1 MOL      0.465467
     22 O5          1.1800    2.9920    3.0190 o         1 MOL     -0.546155
     23 C9          0.7510    0.6600    4.7670 c3        1 MOL     -0.081707
     24 C10         1.0670   -0.6540    5.5400 c3        1 MOL     -0.037756
     25 C11         0.4020   -1.9020    4.9770 c3        1 MOL     -0.103280
     26 C12         0.9090   -3.1680    5.6880 c3        1 MOL      0.085422
     27 N3          0.2420   -4.3830    5.0580 n4        1 MOL     -0.522179
     28 H8          3.1020    0.8930    4.2270 hn        1 MOL      0.201830
     29 H9          0.8200   -0.1980    2.6930 h1        1 MOL      0.052828
     30 H10        -0.3300    0.8030    4.7370 hc        1 MOL      0.060819
     31 H11         1.1890    1.5650    5.1710 hc        1 MOL      0.060819
     32 H12         0.7800   -0.5150    6.5850 hc        1 MOL      0.029225
     33 H13         2.1450   -0.7480    5.6370 hc        1 MOL      0.029225
     34 H14         0.5320   -2.0460    3.9110 hc        1 MOL      0.069339
     35 H15        -0.6850   -1.8650    5.0630 hc        1 MOL      0.069339
     36 H16         0.7440   -3.1310    6.7750 hx        1 MOL      0.077766
     37 H17         1.9970   -3.2250    5.6550 hx        1 MOL      0.077766
     38 H18         0.2340   -4.3950    4.0550 hn        1 MOL      0.360710
     39 H19         0.7420   -5.2400    5.2260 hn        1 MOL      0.360710
     40 H20        -0.7090   -4.3680    5.3980 hn        1 MOL      0.360710
     41 N4         -0.1420    1.9150    1.8140 n         1 MOL     -0.190589
     42 C13        -0.8530    0.8450    1.1240 c3        1 MOL     -0.044082
     43 C14        -1.5950   -0.1960    1.9350 c         1 MOL      0.623672
     44 O6         -1.0720   -1.3260    1.9090 o         1 MOL     -0.601775
     45 C15        -0.0460    0.2690   -0.0260 c3        1 MOL     -0.047849
     46 C16         0.2150    1.1960   -1.2230 c         1 MOL      0.673828
     47 O7         -0.1050    2.4330   -1.2190 o         1 MOL     -0.780362
     48 O8          0.8070    0.5870   -2.1430 o         1 MOL     -0.780362
     49 H21        -0.2630    2.8260    1.4040 hn        1 MOL      0.160504
     50 H22        -1.6470    1.3970    0.6130 h1        1 MOL     -0.037958
     51 H23        -0.6080   -0.6140   -0.3220 hc        1 MOL      0.072721
     52 H24         0.8490   -0.1190    0.4700 hc        1 MOL      0.072721
     53 N5         -2.7370    0.0970    2.5650 n         1 MOL     -0.542042
     54 C17        -3.5960    1.2960    2.3240 c3        1 MOL      0.109610
     55 C18        -4.7770    1.4420    3.3130 c         1 MOL      0.572560
     56 O9         -4.9090    0.5890    4.1550 o         1 MOL     -0.553267
     57 H25        -3.2200   -0.6100    3.0970 hn        1 MOL      0.304425
     58 H26        -4.0800    1.2220    1.3550 h1        1 MOL      0.040248
     59 H27        -2.9730    2.1660    2.5410 h1        1 MOL      0.040248
     60 N6         -5.6930    2.4280    3.1310 n         1 MOL     -0.421791
     61 C19        -5.5970    3.4720    2.1000 c3        1 MOL      0.014850
     62 C20        -6.4650    3.1410    0.8660 c         1 MOL      0.363146
     63 O10        -7.6440    2.7520    0.9830 o         1 MOL     -0.435210
     64 C21        -5.9750    4.8630    2.6270 c3        1 MOL     -0.204527
     65 C22        -7.4460    4.9610    3.1280 c         1 MOL      0.728080
     66 O11        -7.9060    4.1590    3.9880 o         1 MOL     -0.650456
     67 O12        -8.0980    5.9920    2.8850 o         1 MOL     -0.650456
     68 H28        -6.4560    2.5600    3.7810 hn        1 MOL      0.285365
     69 H29        -4.5690    3.5120    1.7300 h1        1 MOL      0.009028
     70 H30        -5.7460    5.5920    1.8520 hc        1 MOL      0.036481
     71 H31        -5.3070    4.9710    3.4880 hc        1 MOL      0.036481
     72 N7         -5.8870    3.3410   -0.3270 n         1 MOL     -0.083115
     73 C23        -6.5320    3.2080   -1.6590 c3        1 MOL     -0.387066
     74 C24        -6.3230    1.7970   -2.1970 c         1 MOL      0.653837
     75 O13        -7.3290    1.2550   -2.6770 o         1 MOL     -0.538830
     76 H32        -5.0230    3.8510   -0.3340 hn        1 MOL      0.177458
     77 H33        -6.0680    3.9250   -2.3340 h1        1 MOL      0.152703
     78 H34        -7.5870    3.4110   -1.4610 h1        1 MOL      0.152703
     79 N8         -5.1510    1.1790   -2.0150 n         1 MOL     -0.450421
     80 C25        -4.8350   -0.1420   -2.4380 c3        1 MOL      0.031358
     81 C26        -5.0320   -1.1060   -1.2950 c         1 MOL      0.682872
     82 O14        -4.8110   -0.6750   -0.1760 o         1 MOL     -0.490103
     83 C27        -3.4230   -0.1730   -3.1010 c3        1 MOL      0.376542
     84 C28        -3.3990    0.5740   -4.4430 c3        1 MOL     -0.201417
     85 O15        -3.0910   -1.5080   -3.4180 oh        1 MOL     -0.693098
     86 H35        -4.4350    1.5910   -1.4480 hn        1 MOL      0.174038
     87 H36        -5.5900   -0.3870   -3.1760 h1        1 MOL      0.033371
     88 H37        -2.6960    0.2780   -2.4400 h1        1 MOL      0.011527
     89 H38        -2.2570   -1.4150   -3.8860 ho        1 MOL      0.457247
     90 H39        -3.4880    1.6640   -4.3420 hc        1 MOL      0.033505
     91 H40        -2.5050    0.3590   -5.0310 hc        1 MOL      0.033505
     92 H41        -4.2570    0.2090   -5.0060 hc        1 MOL      0.033505
     93 N9         -5.4200   -2.3500   -1.6090 n         1 MOL     -0.574212
     94 C29        -5.7680   -3.4020   -0.5970 c3        1 MOL     -0.215296
     95 C30        -4.5650   -4.2930   -0.1910 c         1 MOL      0.519447
     96 O16        -4.8170   -5.3580    0.3260 o         1 MOL     -0.501211
     97 C31        -7.0690   -4.2240   -1.0330 c3        1 MOL      0.297552
     98 C32        -6.8370   -5.3240   -2.1090 c3        1 MOL      0.040638
     99 C33        -8.2620   -3.2740   -1.4630 c3        1 MOL     -0.243574
    100 C34        -8.1210   -6.1580   -2.4540 c3        1 MOL     -0.214970
    101 H42        -5.5940   -2.5660   -2.5780 hn        1 MOL      0.368216
    102 H43        -6.0990   -2.9040    0.3120 h1        1 MOL      0.155573
    103 H44        -7.4720   -4.7410   -0.1670 hc        1 MOL     -0.017657
    104 H45        -6.0790   -5.9330   -1.6180 hc        1 MOL     -0.012727
    105 H46        -6.4050   -4.7840   -2.9490 hc        1 MOL     -0.012727
    106 H47        -8.1580   -2.9670   -2.5100 hc        1 MOL      0.063206
    107 H48        -9.2340   -3.7380   -1.3370 hc        1 MOL      0.063206
    108 H49        -8.2830   -2.3700   -0.8690 hc        1 MOL      0.063206
    109 H50        -7.8470   -7.2110   -2.5040 hc        1 MOL      0.056608
    110 H51        -8.9500   -6.0080   -1.7600 hc        1 MOL      0.056608
    111 H52        -8.4610   -5.8470   -3.4460 hc        1 MOL      0.056608
    112 N10        -3.2570   -3.8260   -0.3320 n         1 MOL     -0.282599
    113 C35        -2.0620   -4.7180   -0.3450 c3        1 MOL     -0.189898
    114 C36        -0.7840   -3.9740   -0.3780 c         1 MOL      0.572458
    115 O17        -0.7220   -2.9900   -1.1770 o         1 MOL     -0.470596
    116 C37        -2.0590   -5.7650   -1.4490 c3        1 MOL      0.266393
    117 C38        -2.4640   -5.2190   -2.8460 c3        1 MOL     -0.190818
    118 O18        -2.8890   -6.8650   -1.2500 oh        1 MOL     -0.586049
    119 H53        -3.1500   -2.8550   -0.5850 hn        1 MOL      0.217058
    120 H54        -2.1410   -5.2230    0.6220 h1        1 MOL      0.079970
    121 H55        -1.0620   -6.2090   -1.4930 h1        1 MOL      0.079050
    122 H56        -3.7170   -6.4870   -0.9520 ho        1 MOL      0.363588
    123 H57        -3.4740   -4.8170   -2.8820 hc        1 MOL      0.048203
    124 H58        -1.7890   -4.4490   -3.2290 hc        1 MOL      0.048203
    125 H59        -2.3800   -6.0330   -3.5640 hc        1 MOL      0.048203
    126 N11         0.2680   -4.2330    0.3210 n         1 MOL     -0.458866
    127 C39         1.3930   -3.3260    0.4420 c3        1 MOL      0.086914
    128 C40         2.2150   -3.1730   -0.8430 c         1 MOL      0.273327
    129 O19         2.1030   -4.1110   -1.6650 o         1 MOL     -0.533806
    130 C41         2.2470   -3.8990    1.5130 c3        1 MOL      0.250313
    131 C42         2.9190   -5.2130    1.2570 c3        1 MOL     -0.380426
    132 O20         1.5630   -4.2670    2.6190 oh        1 MOL     -0.670694
    133 H60         0.2960   -5.0780    0.8760 hn        1 MOL      0.292573
    134 H61         1.1310   -2.2890    0.6560 h1        1 MOL      0.158749
    135 H62         2.9240   -3.1020    1.8050 h1        1 MOL      0.108471
    136 H63         2.0980   -4.9330    3.0550 ho        1 MOL      0.386638
    137 H64         3.5850   -5.1960    0.3930 hc        1 MOL      0.108540
    138 H65         3.6080   -5.4270    2.0720 hc        1 MOL      0.108540
    139 H66         2.1200   -5.9470    1.2020 hc        1 MOL      0.108540
    140 N12         2.9580   -2.1450   -0.9370 n         1 MOL      0.189210
    141 C43         3.8280   -1.9110   -2.1470 c3        1 MOL     -0.087312
    142 C44         4.0090   -0.4490   -2.4050 c         1 MOL      0.725938
    143 O21         4.2280   -0.0130   -3.5460 o         1 MOL     -0.671965
    144 C45         5.2430   -2.6070   -1.9490 c3        1 MOL     -0.306823
    145 C46         6.3850   -2.2240   -2.9120 c3        1 MOL     -0.009798
    146 C47         6.1090   -2.7030   -4.3660 c3        1 MOL      0.120110
    147 C48         7.3630   -2.6620   -5.1880 c3        1 MOL      0.004649
    148 N13         7.2540   -3.4320   -6.4170 n4        1 MOL     -0.190192
    149 H67         2.9520   -1.3990   -0.2570 hn        1 MOL     -0.278921
    150 H68         3.2810   -2.3610   -2.9670 h1        1 MOL      0.060575
    151 H69         5.2190   -3.6950   -1.9240 hc        1 MOL      0.126050
    152 H70         5.7070   -2.2820   -1.0120 hc        1 MOL      0.126050
    153 H71         7.3160   -2.6350   -2.5270 hc        1 MOL      0.027379
    154 H72         6.5530   -1.1440   -2.9830 hc        1 MOL      0.027379
    155 H73         5.4100   -2.0070   -4.8460 hc        1 MOL     -0.008919
    156 H74         5.7050   -3.7150   -4.3570 hc        1 MOL     -0.008919
    157 H75         8.0740   -3.1830   -4.5520 hx        1 MOL      0.065444
    158 H76         7.6560   -1.6110   -5.2740 hx        1 MOL      0.065444
    159 H77         6.4850   -3.1720   -7.0180 hn        1 MOL      0.250207
    160 H78         8.0740   -3.4260   -7.0030 hn        1 MOL      0.250207
    161 H79         7.0640   -4.4050   -6.2110 hn        1 MOL      0.250207
    162 N14         4.1900    0.2670   -1.3560 n         1 MOL      0.185263
    163 C49         4.7180    1.6450   -1.2490 c3        1 MOL     -0.912445
    164 C50         6.2630    1.6990   -0.9690 c         1 MOL      0.581661
    165 O22         6.7750    1.0260   -0.0600 o         1 MOL     -0.494658
    166 C51         3.9210    2.4130   -0.1570 c3        1 MOL      0.732059
    167 C52         4.2550    3.8790    0.0100 c3        1 MOL     -0.607290
    168 C53         4.0240    4.7380   -1.2060 c         1 MOL      0.716633
    169 O23         5.0060    5.0740   -1.9460 o         1 MOL     -0.712589
    170 O24         2.8710    5.1220   -1.3950 o         1 MOL     -0.712589
    171 H80         4.2820   -0.3440   -0.5600 hn        1 MOL      0.134838
    172 H81         4.5230    2.1030   -2.2150 h1        1 MOL      0.241067
    173 H82         4.1420    1.9120    0.7870 hc        1 MOL     -0.145994
    174 H83         2.8470    2.3640   -0.3310 hc        1 MOL     -0.145994
    175 H84         5.3150    3.9310    0.2630 hc        1 MOL      0.179675
    176 H85         3.6540    4.2160    0.8560 hc        1 MOL      0.179675
    177 N15         6.9920    2.5010   -1.7470 n         1 MOL     -0.247467
    178 C54         8.4380    2.7880   -1.6280 c3        1 MOL     -0.247125
    179 H86         8.6990    3.6140   -2.2910 h1        1 MOL      0.112484
    180 H87         8.6720    3.0610   -0.6000 h1        1 MOL      0.112484
    181 H88         9.0090    1.9040   -1.9090 h1        1 MOL      0.112484
    182 H89         6.4950    2.9870   -2.4740 hn        1 MOL      0.302697
    183 Ca1         0.2910    4.7960   -2.1270 Ca        1 MOL      1.752662
    184 O25         1.5900    5.5050   -4.3980 oh        1 MOL     -0.814346
    185 H90         2.1760    6.2380   -4.5830 ho        1 MOL      0.405950
    186 H91         1.7510    4.8880   -5.1130 ho        1 MOL      0.405950
    187 O26        -1.3180    3.8660   -4.1520 oh        1 MOL     -0.814346
    188 H92        -0.9790    3.0570   -4.5350 ho        1 MOL      0.405950
    189 H93        -1.9400    4.2040   -4.8040 ho        1 MOL      0.405950
    190 O27        -1.0830    7.0320   -3.7410 oh        1 MOL     -0.814346
    191 H94        -1.7600    7.6320   -3.4250 ho        1 MOL      0.405950
    192 H95        -1.0660    7.1740   -4.6930 ho        1 MOL      0.405950
    193 O28         1.8830    2.9690   -3.3150 oh        1 MOL     -0.814346
    194 H96         1.4920    2.1910   -2.9010 ho        1 MOL      0.405950
    195 H97         1.7210    2.8430   -4.2460 ho        1 MOL      0.405950
    196 O29         1.0390    7.2820   -1.2340 oh        1 MOL     -0.814346
    197 H98         1.2440    7.9260   -1.9190 ho        1 MOL      0.405950
    198 H99         1.8850    6.8900   -1.0150 ho        1 MOL      0.405950
@<TRIPOS>BOND
     1    1    2 1   
     2    1    4 1   
     3    1    5 1   
     4    1    6 1   
     5    2    3 2   
     6    2    7 1   
     7    7    8 1   
     8    7   15 1   
     9    8    9 1   
    10    8   11 1   
    11    8   16 1   
    12    9   10 2   
    13    9   19 1   
    14   11   12 1   
    15   11   17 1   
    16   11   18 1   
    17   12   13 1   
    18   12   14 1   
    19   19   20 1   
    20   19   28 1   
    21   20   21 1   
    22   20   23 1   
    23   20   29 1   
    24   21   22 2   
    25   21   41 1   
    26   23   24 1   
    27   23   30 1   
    28   23   31 1   
    29   24   25 1   
    30   24   32 1   
    31   24   33 1   
    32   25   26 1   
    33   25   34 1   
    34   25   35 1   
    35   26   27 1   
    36   26   36 1   
    37   26   37 1   
    38   27   38 1   
    39   27   39 1   
    40   27   40 1   
    41   41   42 1   
    42   41   49 1   
    43   42   43 1   
    44   42   45 1   
    45   42   50 1   
    46   43   44 2   
    47   43   53 1   
    48   45   46 1   
    49   45   51 1   
    50   45   52 1   
    51   46   47 1   
    52   46   48 1   
    53   53   54 1   
    54   53   57 1   
    55   54   55 1   
    56   54   58 1   
    57   54   59 1   
    58   55   56 2   
    59   55   60 1   
    60   60   61 1   
    61   60   68 1   
    62   61   62 1   
    63   61   64 1   
    64   61   69 1   
    65   62   63 2   
    66   62   72 1   
    67   64   65 1   
    68   64   70 1   
    69   64   71 1   
    70   65   66 1   
    71   65   67 1   
    72   72   73 1   
    73   72   76 1   
    74   73   74 1   
    75   73   77 1   
    76   73   78 1   
    77   74   75 2   
    78   74   79 1   
    79   79   80 1   
    80   79   86 1   
    81   80   81 1   
    82   80   83 1   
    83   80   87 1   
    84   81   82 2   
    85   81   93 1   
    86   83   84 1   
    87   83   85 1   
    88   83   88 1   
    89   84   90 1   
    90   84   91 1   
    91   84   92 1   
    92   85   89 1   
    93   93   94 1   
    94   93  101 1   
    95   94   95 1   
    96   94   97 1   
    97   94  102 1   
    98   95   96 2   
    99   95  112 1   
   100   97   98 1   
   101   97   99 1   
   102   97  103 1   
   103   98  100 1   
   104   98  104 1   
   105   98  105 1   
   106   99  106 1   
   107   99  107 1   
   108   99  108 1   
   109  100  109 1   
   110  100  110 1   
   111  100  111 1   
   112  112  113 1   
   113  112  119 1   
   114  113  114 1   
   115  113  116 1   
   116  113  120 1   
   117  114  115 2   
   118  114  126 1   
   119  116  117 1   
   120  116  118 1   
   121  116  121 1   
   122  117  123 1   
   123  117  124 1   
   124  117  125 1   
   125  118  122 1   
   126  126  127 1   
   127  126  133 1   
   128  127  128 1   
   129  127  130 1   
   130  127  134 1   
   131  128  129 2   
   132  128  140 1   
   133  130  131 1   
   134  130  132 1   
   135  130  135 1   
   136  131  137 1   
   137  131  138 1   
   138  131  139 1   
   139  132  136 1   
   140  140  141 1   
   141  140  149 1   
   142  141  142 1   
   143  141  144 1   
   144  141  150 1   
   145  142  143 2   
   146  142  162 1   
   147  144  145 1   
   148  144  151 1   
   149  144  152 1   
   150  145  146 1   
   151  145  153 1   
   152  145  154 1   
   153  146  147 1   
   154  146  155 1   
   155  146  156 1   
   156  147  148 1   
   157  147  157 1   
   158  147  158 1   
   159  148  159 1   
   160  148  160 1   
   161  148  161 1   
   162  162  163 1   
   163  162  171 1   
   164  163  164 1   
   165  163  166 1   
   166  163  172 1   
   167  164  165 2   
   168  164  177 1   
   169  166  167 1   
   170  166  173 1   
   171  166  174 1   
   172  167  168 1   
   173  167  175 1   
   174  167  176 1   
   175  168  169 1   
   176  168  170 1   
   177  177  178 1   
   178  177  182 1   
   179  178  179 1   
   180  178  180 1   
   181  178  181 1   
   182  184  185 1   
   183  184  186 1   
   184  187  188 1   
   185  187  189 1   
   186  190  191 1   
   187  190  192 1   
   188  193  194 1   
   189  193  195 1   
   190  196  197 1   
   191  196  198 1   
@<TRIPOS>SUBSTRUCTURE
     1 MOL         1 TEMP              0 ****  ****    0 ROOT
