@<TRIPOS>MOLECULE
MOL
  190   183     1     0     0
SMALL
resp


@<TRIPOS>ATOM
      1 C1          2.3100   -0.3460    3.8920 c3        1 MOL     -0.359799
      2 C2          2.4850    0.9690    3.0610 c         1 MOL      0.666637
      3 O1          1.5150    1.5300    2.4540 o         1 MOL     -0.502404
      4 H1          1.5830   -0.1780    4.6870 hc        1 MOL      0.083623
      5 H2          1.9550   -1.1440    3.2390 hc        1 MOL      0.083623
      6 H3          3.2670   -0.6300    4.3290 hc        1 MOL      0.083623
      7 N1          3.7910    1.3860    3.0340 n         1 MOL     -0.682362
      8 C3          4.1840    2.5970    2.4990 c3        1 MOL      0.471736
      9 C4          5.0790    2.4420    1.2640 c         1 MOL      0.368838
     10 O2          4.9800    3.2570    0.3540 o         1 MOL     -0.457791
     11 C5          4.9520    3.2220    3.7040 c3        1 MOL     -0.082470
     12 C6          5.0200    4.7470    3.7590 c         1 MOL      0.679169
     13 O3          5.0470    5.4600    2.7220 o         1 MOL     -0.703427
     14 O4          5.0270    5.2850    4.8960 o         1 MOL     -0.703427
     15 H4          4.4890    0.9150    3.5860 hn        1 MOL      0.309755
     16 H5          3.3110    3.1840    2.2020 h1        1 MOL     -0.002224
     17 H6          5.9660    2.8340    3.6990 hc        1 MOL     -0.052253
     18 H7          4.5540    2.8840    4.6640 hc        1 MOL     -0.052253
     19 N2          5.9760    1.4460    1.2640 n         1 MOL     -0.349185
     20 C7          6.9320    1.1970    0.2070 c3        1 MOL      0.281002
     21 C8          6.4040    1.2710   -1.2440 c         1 MOL      0.306126
     22 O5          7.0410    1.8160   -2.1910 o         1 MOL     -0.488260
     23 C9          8.1290    2.0760    0.4310 c3        1 MOL     -0.602578
     24 H8          5.9150    0.7740    2.0150 hn        1 MOL      0.199617
     25 H9          7.1700    0.1490    0.3880 h1        1 MOL      0.026891
     26 H10         7.8660    3.1220    0.2760 hc        1 MOL      0.160626
     27 H11         8.4790    1.9770    1.4580 hc        1 MOL      0.160626
     28 H12         8.9630    1.7380   -0.2010 hc        1 MOL      0.160626
     29 N3          5.1370    0.8420   -1.3820 n         1 MOL     -0.323896
     30 C10         4.2740    0.9780   -2.6570 c3        1 MOL      0.167314
     31 C11         4.1390    2.3760   -3.2840 c         1 MOL      0.351997
     32 O6          3.8640    2.5620   -4.5220 o         1 MOL     -0.501709
     33 C12         4.6820   -0.0380   -3.7430 c3        1 MOL     -0.134856
     34 C13         4.8510   -1.4380   -3.1870 c         1 MOL      0.726632
     35 O7          3.8120   -1.9350   -2.7150 o         1 MOL     -0.715066
     36 O8          5.9570   -2.0820   -3.1030 o         1 MOL     -0.715066
     37 H13         4.6900    0.3620   -0.6140 hn        1 MOL      0.160471
     38 H14         3.2350    0.7940   -2.3680 h1        1 MOL      0.086158
     39 H15         5.6010    0.2570   -4.2630 hc        1 MOL      0.030500
     40 H16         3.9800   -0.0230   -4.5760 hc        1 MOL      0.030500
     41 N4          4.3620    3.4550   -2.5180 n         1 MOL     -0.072104
     42 C14         4.2380    4.8340   -3.0820 c3        1 MOL     -0.179614
     43 C15         2.7720    5.2650   -3.2850 c         1 MOL      0.485234
     44 O9          2.4930    6.1270   -4.1430 o         1 MOL     -0.553051
     45 H17         4.6600    3.3280   -1.5640 hn        1 MOL      0.182492
     46 H18         4.7290    4.8990   -4.0530 h1        1 MOL      0.099557
     47 H19         4.7170    5.6000   -2.4820 h1        1 MOL      0.099557
     48 N5          1.8220    4.5830   -2.6460 n         1 MOL     -0.190565
     49 C16         0.3820    4.8620   -2.6730 c3        1 MOL      0.132312
     50 C17        -0.0940    5.8600   -1.5800 c         1 MOL      0.460408
     51 O10         0.6590    6.1460   -0.6620 o         1 MOL     -0.511162
     52 C18        -0.4120    3.4470   -2.7400 c3        1 MOL     -0.213395
     53 C19         0.0340    2.5350   -3.8590 c         1 MOL      0.660835
     54 N6          0.5360    1.3830   -3.5510 n         1 MOL     -0.791420
     55 O11        -0.1290    2.8710   -5.0420 o         1 MOL     -0.619186
     56 H20         2.0690    3.8620   -1.9810 hn        1 MOL      0.134772
     57 H21         0.2170    5.3890   -3.6100 h1        1 MOL      0.008663
     58 H22        -1.4720    3.5630   -2.9320 hc        1 MOL      0.082809
     59 H23        -0.3270    2.9410   -1.7820 hc        1 MOL      0.082809
     60 H24         0.4930    0.9750   -2.6280 hn        1 MOL      0.360819
     61 H25         0.7080    0.7340   -4.3040 hn        1 MOL      0.360819
     62 N7         -1.2940    6.3270   -1.6920 n         1 MOL     -0.401764
     63 C20        -2.0170    7.0650   -0.6850 c3        1 MOL      0.065473
     64 C21        -3.4000    6.4010   -0.4860 c         1 MOL      0.481911
     65 O12        -3.8780    5.5790   -1.2710 o         1 MOL     -0.466732
     66 H26        -1.8110    5.9280   -2.4620 hn        1 MOL      0.247351
     67 H27        -2.2060    8.0980   -0.9740 h1        1 MOL      0.046910
     68 H28        -1.6100    7.0630    0.3230 h1        1 MOL      0.046910
     69 N8         -4.1780    6.8710    0.4950 n         1 MOL     -0.288769
     70 C22        -5.5030    6.2860    0.7240 c3        1 MOL     -0.550615
     71 C23        -5.4490    4.8290    1.1420 c         1 MOL      0.596094
     72 O13        -6.4790    4.1120    1.0490 o         1 MOL     -0.573216
     73 C24        -6.3180    7.2020    1.5950 c3        1 MOL      0.492288
     74 C25        -5.8000    7.2500    3.0310 c3        1 MOL     -0.432355
     75 O14        -6.3370    8.5220    1.0890 oh        1 MOL     -0.630654
     76 H29        -3.9350    7.6900    1.0440 hn        1 MOL      0.221504
     77 H30        -6.0120    6.4290   -0.2240 h1        1 MOL      0.228104
     78 H31        -7.3510    6.8730    1.6250 h1        1 MOL      0.062969
     79 H32        -5.4380    8.8420    1.0750 ho        1 MOL      0.386680
     80 H33        -4.7100    7.3610    3.0640 hc        1 MOL      0.107797
     81 H34        -6.3770    8.0000    3.5840 hc        1 MOL      0.107797
     82 H35        -6.0150    6.3380    3.5940 hc        1 MOL      0.107797
     83 N9         -4.2910    4.3300    1.5350 n         1 MOL     -0.187687
     84 C26        -4.0060    2.8700    1.6970 c3        1 MOL     -0.099150
     85 C27        -2.7800    2.3520    0.8960 c         1 MOL      0.516757
     86 O15        -1.7740    3.0660    0.7420 o         1 MOL     -0.489301
     87 C28        -3.8230    2.4320    3.1910 c3        1 MOL      0.033456
     88 C29        -2.4650    2.9740    3.7580 c3        1 MOL     -0.136692
     89 C30        -5.0270    2.8490    4.1110 c3        1 MOL     -0.394185
     90 C31        -2.1840    3.1110    5.3180 c3        1 MOL     -0.537676
     91 H36        -3.4960    4.9430    1.4690 hn        1 MOL      0.196518
     92 H37        -4.8330    2.3410    1.2370 h1        1 MOL      0.097114
     93 H38        -3.6840    1.3530    3.2630 hc        1 MOL      0.085981
     94 H39        -2.4050    4.0350    3.4830 hc        1 MOL      0.143303
     95 H40        -1.6790    2.3390    3.3500 hc        1 MOL      0.143303
     96 H41        -4.9340    2.3390    5.0700 hc        1 MOL      0.101219
     97 H42        -5.0700    3.9130    4.3310 hc        1 MOL      0.101219
     98 H43        -5.9540    2.3870    3.7670 hc        1 MOL      0.101219
     99 H44        -2.0700    2.0880    5.6820 hc        1 MOL      0.147402
    100 H45        -1.2070    3.5610    5.4660 hc        1 MOL      0.147402
    101 H46        -3.0460    3.6560    5.7100 hc        1 MOL      0.147402
    102 N10        -2.9510    1.0660    0.5370 n         1 MOL     -0.482880
    103 C32        -2.1010    0.2460   -0.4170 c3        1 MOL      0.078346
    104 C33        -2.9210   -0.7810   -1.2880 c         1 MOL      0.475620
    105 O16        -2.6190   -1.0140   -2.4270 o         1 MOL     -0.488767
    106 C34        -0.9570   -0.4140    0.3520 c3        1 MOL      0.082686
    107 C35         0.1620   -0.8390   -0.6630 c         1 MOL      0.597935
    108 O17         0.8350    0.0790   -1.1430 o         1 MOL     -0.602498
    109 O18         0.4010   -2.0810   -0.7640 o         1 MOL     -0.602498
    110 H47        -3.7330    0.6290    1.0060 hn        1 MOL      0.211389
    111 H48        -1.5960    0.8830   -1.1530 h1        1 MOL      0.054039
    112 H49        -1.3390   -1.2930    0.8730 hc        1 MOL     -0.056331
    113 H50        -0.5450    0.3760    0.9790 hc        1 MOL     -0.056331
    114 N11        -3.9130   -1.4530   -0.6680 n         1 MOL     -0.438708
    115 C36        -4.7990   -2.4540   -1.3070 c3        1 MOL      0.365769
    116 C37        -4.6900   -3.6830   -0.3360 c         1 MOL      0.183597
    117 O19        -4.7930   -3.5440    0.8470 o         1 MOL     -0.432350
    118 C38        -6.1700   -1.8830   -1.5090 c3        1 MOL     -0.548140
    119 C39        -6.9760   -2.6700   -2.4810 ca        1 MOL      0.373388
    120 C40        -6.9110   -2.5190   -3.8810 ca        1 MOL     -0.338773
    121 C41        -7.8220   -3.6640   -1.9700 ca        1 MOL     -0.338773
    122 C42        -7.8040   -3.2180   -4.7230 ca        1 MOL      0.001010
    123 C43        -8.5780   -4.4270   -2.8600 ca        1 MOL      0.001010
    124 C44        -8.7040   -4.0870   -4.1690 ca        1 MOL     -0.203636
    125 H51        -4.1670   -1.2360    0.2830 hn        1 MOL      0.282381
    126 H52        -4.2330   -2.7330   -2.2010 h1        1 MOL      0.016018
    127 H53        -6.1200   -0.8770   -1.9370 hc        1 MOL      0.164723
    128 H54        -6.6930   -1.7670   -0.5650 hc        1 MOL      0.164723
    129 H55        -6.2740   -1.7780   -4.3400 ha        1 MOL      0.164670
    130 H56        -7.8290   -3.8540   -0.9010 ha        1 MOL      0.164670
    131 H57        -7.8770   -2.9660   -5.7730 ha        1 MOL      0.084077
    132 H58        -9.1470   -5.2680   -2.4750 ha        1 MOL      0.084077
    133 H59        -9.3230   -4.6590   -4.8420 ha        1 MOL      0.105390
    134 N12        -4.5590   -4.9490   -0.8870 n         1 MOL     -0.041862
    135 C45        -4.4540   -6.2030   -0.1450 c3        1 MOL      0.119387
    136 C46        -3.6670   -6.1140    1.1800 c         1 MOL      0.242401
    137 O20        -4.0630   -6.7050    2.1830 o         1 MOL     -0.497689
    138 C47        -3.7860   -7.2110   -1.1100 c3        1 MOL     -0.042535
    139 C48        -4.4020   -6.7770   -2.4410 c3        1 MOL     -0.052971
    140 C49        -4.4380   -5.2500   -2.3340 c3        1 MOL     -0.117146
    141 H60        -5.4870   -6.5720   -0.0310 h1        1 MOL      0.030042
    142 H61        -2.7120   -7.0660   -1.1800 hc        1 MOL      0.032389
    143 H62        -4.0140   -8.2220   -0.7780 hc        1 MOL      0.032389
    144 H63        -3.8420   -7.1050   -3.3140 hc        1 MOL      0.030283
    145 H64        -5.3420   -7.3210   -2.4520 hc        1 MOL      0.030283
    146 H65        -3.5440   -4.7630   -2.7370 h1        1 MOL      0.092619
    147 H66        -5.3330   -5.0720   -2.9280 h1        1 MOL      0.092619
    148 N13        -2.5010   -5.5020    1.2270 n         1 MOL      0.016854
    149 C50        -1.6890   -5.4290    2.4490 c3        1 MOL     -0.374756
    150 C51        -2.2850   -4.6540    3.6560 c         1 MOL      0.585835
    151 O21        -2.1130   -5.1300    4.8000 o         1 MOL     -0.544569
    152 C52        -0.2290   -4.9890    2.1330 c3        1 MOL      0.027919
    153 C53         0.5720   -6.1240    1.3500 c3        1 MOL      0.065428
    154 C54         1.8590   -5.4450    1.0060 c         1 MOL      0.406830
    155 O22         2.2120   -5.4560   -0.2190 o         1 MOL     -0.617792
    156 O23         2.5260   -4.9320    1.9160 o         1 MOL     -0.617792
    157 H67        -2.2730   -4.9980    0.3760 hn        1 MOL      0.172396
    158 H68        -1.5380   -6.4890    2.6690 h1        1 MOL      0.148919
    159 H69         0.3140   -4.7610    3.0470 hc        1 MOL      0.042689
    160 H70        -0.2170   -4.0650    1.5540 hc        1 MOL      0.042689
    161 H71         0.0410   -6.5280    0.4940 hc        1 MOL     -0.025456
    162 H72         0.7390   -7.0000    1.9770 hc        1 MOL     -0.025456
    163 N14        -3.0830   -3.5890    3.4080 n         1 MOL     -0.341653
    164 C55        -3.9130   -2.9510    4.4650 c3        1 MOL     -0.097518
    165 H73        -3.5380   -3.2430    5.4450 h1        1 MOL      0.070741
    166 H74        -3.8600   -1.8670    4.3640 h1        1 MOL      0.070741
    167 H75        -4.9480   -3.2760    4.3610 h1        1 MOL      0.070741
    168 H76        -3.1890   -3.2940    2.4480 hn        1 MOL      0.265233
    169 Ca1         4.6740   -4.5340    0.6340 Ca        1 MOL      1.703207
    170 O24         5.7490   -3.4520    2.7590 oh        1 MOL     -0.834793
    171 H77         6.5040   -2.8680    2.8390 ho        1 MOL      0.401539
    172 H78         5.3640   -3.4570    3.6390 ho        1 MOL      0.401539
    173 O25         4.9920   -6.9920   -0.5330 oh        1 MOL     -0.834793
    174 H79         5.2220   -7.8590   -0.1900 ho        1 MOL      0.401539
    175 H80         4.4500   -7.1780   -1.3020 ho        1 MOL      0.401539
    176 O26         6.1450   -2.6430   -0.5520 oh        1 MOL     -0.834793
    177 H81         6.1310   -2.5860   -1.5170 ho        1 MOL      0.401539
    178 H82         7.0380   -2.4120   -0.3130 ho        1 MOL      0.401539
    179 O27         7.5690   -5.1420    0.3960 oh        1 MOL     -0.834793
    180 H83         7.4430   -6.0020    0.7920 ho        1 MOL      0.401539
    181 H84         8.3870   -4.8240    0.7790 ho        1 MOL      0.401539
    182 O28         3.1610   -2.4880   -0.1620 oh        1 MOL     -0.834793
    183 H85         2.2240   -2.3420   -0.3060 ho        1 MOL      0.401539
    184 H86         3.5840   -1.9900   -0.8720 ho        1 MOL      0.401539
    185 O29         5.0570   -6.2630    2.4810 oh        1 MOL     -0.834793
    186 H87         4.5980   -6.7230    3.1870 ho        1 MOL      0.401539
    187 H88         5.9170   -6.6940    2.4370 ho        1 MOL      0.401539
    188 O30         4.4260   -4.4080   -2.1140 oh        1 MOL     -0.834793
    189 H89         4.2760   -3.4650   -2.2740 ho        1 MOL      0.401539
    190 H90         4.4630   -4.7950   -2.9870 ho        1 MOL      0.401539
@<TRIPOS>BOND
     1    1    2 1   
     2    1    4 1   
     3    1    5 1   
     4    1    6 1   
     5    2    3 2   
     6    2    7 1   
     7    7    8 1   
     8    7   15 1   
     9    8    9 1   
    10    8   11 1   
    11    8   16 1   
    12    9   10 2   
    13    9   19 1   
    14   11   12 1   
    15   11   17 1   
    16   11   18 1   
    17   12   13 1   
    18   12   14 1   
    19   19   20 1   
    20   19   24 1   
    21   20   21 1   
    22   20   23 1   
    23   20   25 1   
    24   21   22 2   
    25   21   29 1   
    26   23   26 1   
    27   23   27 1   
    28   23   28 1   
    29   29   30 1   
    30   29   37 1   
    31   30   31 1   
    32   30   33 1   
    33   30   38 1   
    34   31   32 2   
    35   31   41 1   
    36   33   34 1   
    37   33   39 1   
    38   33   40 1   
    39   34   35 1   
    40   34   36 1   
    41   41   42 1   
    42   41   45 1   
    43   42   43 1   
    44   42   46 1   
    45   42   47 1   
    46   43   44 2   
    47   43   48 1   
    48   48   49 1   
    49   48   56 1   
    50   49   50 1   
    51   49   52 1   
    52   49   57 1   
    53   50   51 2   
    54   50   62 1   
    55   52   53 1   
    56   52   58 1   
    57   52   59 1   
    58   53   54 1   
    59   53   55 2   
    60   54   60 1   
    61   54   61 1   
    62   62   63 1   
    63   62   66 1   
    64   63   64 1   
    65   63   67 1   
    66   63   68 1   
    67   64   65 2   
    68   64   69 1   
    69   69   70 1   
    70   69   76 1   
    71   70   71 1   
    72   70   73 1   
    73   70   77 1   
    74   71   72 2   
    75   71   83 1   
    76   73   74 1   
    77   73   75 1   
    78   73   78 1   
    79   74   80 1   
    80   74   81 1   
    81   74   82 1   
    82   75   79 1   
    83   83   84 1   
    84   83   91 1   
    85   84   85 1   
    86   84   87 1   
    87   84   92 1   
    88   85   86 2   
    89   85  102 1   
    90   87   88 1   
    91   87   89 1   
    92   87   93 1   
    93   88   90 1   
    94   88   94 1   
    95   88   95 1   
    96   89   96 1   
    97   89   97 1   
    98   89   98 1   
    99   90   99 1   
   100   90  100 1   
   101   90  101 1   
   102  102  103 1   
   103  102  110 1   
   104  103  104 1   
   105  103  106 1   
   106  103  111 1   
   107  104  105 2   
   108  104  114 1   
   109  106  107 1   
   110  106  112 1   
   111  106  113 1   
   112  107  108 1   
   113  107  109 1   
   114  114  115 1   
   115  114  125 1   
   116  115  116 1   
   117  115  118 1   
   118  115  126 1   
   119  116  117 2   
   120  116  134 1   
   121  118  119 1   
   122  118  127 1   
   123  118  128 1   
   124  119  120 ar  
   125  119  121 ar  
   126  120  122 ar  
   127  120  129 1   
   128  121  123 ar  
   129  121  130 1   
   130  122  124 ar  
   131  122  131 1   
   132  123  124 ar  
   133  123  132 1   
   134  124  133 1   
   135  134  135 1   
   136  134  140 1   
   137  135  136 1   
   138  135  138 1   
   139  135  141 1   
   140  136  137 2   
   141  136  148 1   
   142  138  139 1   
   143  138  142 1   
   144  138  143 1   
   145  139  140 1   
   146  139  144 1   
   147  139  145 1   
   148  140  146 1   
   149  140  147 1   
   150  148  149 1   
   151  148  157 1   
   152  149  150 1   
   153  149  152 1   
   154  149  158 1   
   155  150  151 2   
   156  150  163 1   
   157  152  153 1   
   158  152  159 1   
   159  152  160 1   
   160  153  154 1   
   161  153  161 1   
   162  153  162 1   
   163  154  155 1   
   164  154  156 1   
   165  163  164 1   
   166  163  168 1   
   167  164  165 1   
   168  164  166 1   
   169  164  167 1   
   170  170  171 1   
   171  170  172 1   
   172  173  174 1   
   173  173  175 1   
   174  176  177 1   
   175  176  178 1   
   176  179  180 1   
   177  179  181 1   
   178  182  183 1   
   179  182  184 1   
   180  185  186 1   
   181  185  187 1   
   182  188  189 1   
   183  188  190 1   
@<TRIPOS>SUBSTRUCTURE
     1 MOL         1 TEMP              0 ****  ****    0 ROOT
