@<TRIPOS>MOLECULE
MOL
  204   195     1     0     0
SMALL
resp


@<TRIPOS>ATOM
      1 C1         -2.3420    4.0430   -2.8310 c3        1 MOL     -0.364144
      2 C2         -1.2570    4.3410   -1.7460 c         1 MOL      0.666549
      3 O1         -0.6900    3.4240   -1.2290 o         1 MOL     -0.508605
      4 H1         -2.4680    4.9190   -3.4680 hc        1 MOL      0.075387
      5 H2         -2.0250    3.1960   -3.4400 hc        1 MOL      0.075387
      6 H3         -3.2880    3.8090   -2.3450 hc        1 MOL      0.075387
      7 N1         -1.0410    5.6450   -1.4610 n         1 MOL     -0.605322
      8 C3         -0.1810    6.1620   -0.3420 c3        1 MOL      0.024131
      9 C4          1.2580    5.7300   -0.3150 c         1 MOL      0.791721
     10 O2          1.8200    5.0660    0.6190 o         1 MOL     -0.547371
     11 C5         -0.9370    5.9620    0.9680 c3        1 MOL     -0.236190
     12 C6         -0.2810    6.7330    2.1520 c         1 MOL      0.654351
     13 O3          0.3480    7.7630    1.9080 o         1 MOL     -0.637186
     14 O4         -0.5950    6.3080    3.3040 o         1 MOL     -0.637186
     15 H4         -1.4100    6.3780   -2.0640 hn        1 MOL      0.331360
     16 H5         -0.1580    7.2260   -0.5800 h1        1 MOL      0.049874
     17 H6         -0.9400    4.8960    1.2370 hc        1 MOL      0.076220
     18 H7         -2.0050    6.1440    0.8800 hc        1 MOL      0.076220
     19 N2          1.9960    6.0240   -1.3810 n         1 MOL     -0.695821
     20 C7          3.4140    5.6810   -1.5960 c3        1 MOL     -0.052707
     21 C8          4.3430    6.6230   -0.7870 c         1 MOL      0.658120
     22 O5          3.9410    7.7560   -0.5600 o         1 MOL     -0.562419
     23 C9          3.8090    5.5450   -3.0620 c3        1 MOL      0.269510
     24 C10         3.8480    6.8250   -3.8640 c3        1 MOL      0.091051
     25 C11         2.8190    4.5680   -3.6390 c3        1 MOL     -0.067953
     26 C12         4.3940    6.7620   -5.3680 c3        1 MOL     -0.268926
     27 H8          1.5910    6.6530   -2.0580 hn        1 MOL      0.304592
     28 H9          3.5950    4.7020   -1.1390 h1        1 MOL      0.139199
     29 H10         4.8050    5.1090   -3.0670 hc        1 MOL     -0.047903
     30 H11         4.5300    7.4970   -3.3390 hc        1 MOL     -0.022017
     31 H12         2.8520    7.2730   -3.8860 hc        1 MOL     -0.022017
     32 H13         1.8220    5.0000   -3.7310 hc        1 MOL      0.000983
     33 H14         2.9930    4.3160   -4.6810 hc        1 MOL      0.000983
     34 H15         2.7770    3.6190   -3.1050 hc        1 MOL      0.000983
     35 H16         5.4050    6.3660   -5.3730 hc        1 MOL      0.053729
     36 H17         3.6630    6.2300   -5.9800 hc        1 MOL      0.053729
     37 H18         4.3960    7.8080   -5.6530 hc        1 MOL      0.053729
     38 N3          5.4900    6.0550   -0.2240 n         1 MOL     -0.726981
     39 C13         6.1750    4.7730   -0.4020 c3        1 MOL      0.332934
     40 C14         6.7330    4.2520    0.9390 c         1 MOL      0.411732
     41 O6          7.9380    3.8650    0.9230 o         1 MOL     -0.442424
     42 C15         7.2770    5.0020   -1.4960 c3        1 MOL     -0.326748
     43 C16         7.8460    3.7160   -2.1270 c         1 MOL      0.701005
     44 O7          8.7860    3.8200   -2.9870 o         1 MOL     -0.643959
     45 O8          7.6150    2.5770   -1.6860 o         1 MOL     -0.643959
     46 H19         5.9070    6.6870    0.4500 hn        1 MOL      0.327679
     47 H20         5.4370    4.0420   -0.7310 h1        1 MOL     -0.015347
     48 H21         8.1330    5.5690   -1.1510 hc        1 MOL      0.086885
     49 H22         6.8040    5.6220   -2.2640 hc        1 MOL      0.086885
     50 N4          5.9420    4.1170    2.0770 n         1 MOL     -0.325011
     51 C17         6.4850    3.8900    3.4690 c3        1 MOL     -0.343667
     52 C18         7.0590    2.5180    3.7780 c         1 MOL      0.694265
     53 O9          7.9120    2.4530    4.6780 o         1 MOL     -0.594130
     54 H23         4.9360    4.2230    2.0230 hn        1 MOL      0.304121
     55 H24         5.6730    4.0260    4.1870 h1        1 MOL      0.143727
     56 H25         7.2620    4.6390    3.6020 h1        1 MOL      0.143727
     57 N5          6.5440    1.5400    3.0160 n         1 MOL     -0.470833
     58 C19         6.8740    0.1410    3.2880 c3        1 MOL      0.046769
     59 C20         7.8110   -0.6660    2.3380 c         1 MOL      0.423866
     60 O10         8.5890   -1.4960    2.7910 o         1 MOL     -0.517856
     61 C21         5.6490   -0.7370    3.5590 c3        1 MOL      0.033617
     62 C22         4.5730   -0.7550    2.4930 c         1 MOL      0.671534
     63 O11         3.7650    0.1560    2.4630 o         1 MOL     -0.651939
     64 O12         4.5120   -1.6890    1.6490 o         1 MOL     -0.651939
     65 H26         5.9850    1.8690    2.2530 hn        1 MOL      0.248022
     66 H27         7.4380    0.1040    4.2170 h1        1 MOL      0.066574
     67 H28         5.2070   -0.4090    4.4990 hc        1 MOL     -0.013530
     68 H29         6.0200   -1.7480    3.6860 hc        1 MOL     -0.013530
     69 N6          7.5480   -0.5920    1.0190 n         1 MOL     -0.239855
     70 C23         8.2070   -1.4590    0.0430 c3        1 MOL     -0.275239
     71 C24         7.8840   -2.9700    0.0720 c         1 MOL      0.445134
     72 O13         8.6580   -3.6650   -0.5790 o         1 MOL     -0.561640
     73 H30         6.7830   -0.0190    0.6910 hn        1 MOL      0.294122
     74 H31         9.2620   -1.3750    0.3060 h1        1 MOL      0.148545
     75 H32         8.0170   -1.0440   -0.9510 h1        1 MOL      0.148545
     76 N7          6.7960   -3.3930    0.8240 n         1 MOL      0.160014
     77 C25         6.3300   -4.7800    1.1020 c3        1 MOL      0.019759
     78 C26         5.6740   -5.5100   -0.1520 c         1 MOL      0.428312
     79 O14         5.7120   -6.7770   -0.2130 o         1 MOL     -0.526290
     80 C27         7.4050   -5.6110    1.8340 c3        1 MOL      0.054780
     81 C28         7.8930   -5.2070    3.2630 c3        1 MOL     -0.161910
     82 C29         6.7470   -5.1800    4.2310 c         1 MOL      0.605765
     83 N8          6.3000   -6.3630    4.7020 n         1 MOL     -0.855667
     84 O15         6.1950   -4.1900    4.6070 o         1 MOL     -0.515064
     85 H33         6.2520   -2.6630    1.2650 hn        1 MOL     -0.084612
     86 H34         5.5330   -4.6790    1.8340 h1        1 MOL      0.106630
     87 H35         8.2880   -5.7480    1.2110 hc        1 MOL     -0.012384
     88 H36         6.9000   -6.5620    2.0290 hc        1 MOL     -0.012384
     89 H37         8.4230   -4.2610    3.2840 hc        1 MOL      0.042770
     90 H38         8.5250   -6.0160    3.6330 hc        1 MOL      0.042770
     91 H39         6.6390   -7.2100    4.2760 hn        1 MOL      0.374646
     92 H40         5.5220   -6.2400    5.3280 hn        1 MOL      0.374646
     93 N9          5.1380   -4.7380   -1.1050 n         1 MOL     -0.404925
     94 C30         4.6280   -5.3480   -2.4150 c3        1 MOL     -0.011255
     95 C31         3.2130   -4.8520   -2.7640 c         1 MOL      0.687213
     96 O16         2.5350   -5.5190   -3.5030 o         1 MOL     -0.598080
     97 C32         5.5980   -5.1230   -3.5510 c3        1 MOL      0.276147
     98 C33         5.7910   -3.6980   -3.9620 c3        1 MOL     -0.289171
     99 C34         6.9810   -5.8190   -3.2310 c3        1 MOL     -0.289171
    100 H41         4.9160   -3.7700   -0.9270 hn        1 MOL      0.174340
    101 H42         4.5240   -6.4360   -2.3770 h1        1 MOL      0.071795
    102 H43         5.1400   -5.7360   -4.3320 hc        1 MOL     -0.053250
    103 H44         6.3370   -3.2390   -3.1380 hc        1 MOL      0.066143
    104 H45         6.3120   -3.7000   -4.9280 hc        1 MOL      0.066143
    105 H46         4.8690   -3.1470   -4.0670 hc        1 MOL      0.066143
    106 H47         7.4240   -5.2360   -2.4230 hc        1 MOL      0.066143
    107 H48         6.9420   -6.8390   -2.8440 hc        1 MOL      0.066143
    108 H49         7.6340   -5.8640   -4.0990 hc        1 MOL      0.066143
    109 N10         2.8140   -3.6790   -2.3010 n         1 MOL     -0.603802
    110 C35         1.5090   -3.0410   -2.6710 c3        1 MOL      0.286628
    111 C36         0.6000   -2.9380   -1.4260 c         1 MOL      0.491688
    112 O17         0.9710   -3.2690   -0.3050 o         1 MOL     -0.524225
    113 C37         1.8560   -1.6430   -3.3080 c3        1 MOL     -0.260999
    114 C38         0.6580   -0.6890   -3.3340 c         1 MOL      0.582035
    115 N11         0.6310    0.2240   -2.3950 n         1 MOL     -0.673861
    116 O18        -0.2510   -0.7740   -4.1460 o         1 MOL     -0.582813
    117 H50         3.5310   -3.1230   -1.8670 hn        1 MOL      0.359989
    118 H51         0.9490   -3.5640   -3.4390 h1        1 MOL      0.048653
    119 H52         2.2670   -1.7290   -4.3060 hc        1 MOL      0.070432
    120 H53         2.6240   -1.1090   -2.7560 hc        1 MOL      0.070432
    121 H54         1.3900    0.1360   -1.7340 hn        1 MOL      0.356605
    122 H55        -0.1470    0.8490   -2.5840 hn        1 MOL      0.356605
    123 N12        -0.6630   -2.5800   -1.5610 n         1 MOL     -0.459883
    124 C39        -1.7020   -2.5180   -0.5350 c3        1 MOL      0.197287
    125 C40        -3.0980   -2.5270   -1.1620 c         1 MOL      0.623327
    126 O19        -3.3210   -1.9110   -2.2290 o         1 MOL     -0.588800
    127 C41        -1.4950   -1.2970    0.3460 c3        1 MOL     -0.422670
    128 C42        -2.1730   -1.4860    1.7150 ca        1 MOL      0.139355
    129 C43        -3.4900   -1.0140    1.9670 ca        1 MOL     -0.134459
    130 C44        -1.4540   -2.0860    2.7830 ca        1 MOL     -0.134459
    131 C45        -4.1460   -1.2240    3.1790 ca        1 MOL     -0.364422
    132 C46        -2.1080   -2.1960    4.0090 ca        1 MOL     -0.364422
    133 C47        -3.4350   -1.8600    4.2520 ca        1 MOL      0.456504
    134 O20        -4.0440   -2.2510    5.4010 oh        1 MOL     -0.609661
    135 H56        -0.9300   -2.4550   -2.5280 hn        1 MOL      0.256309
    136 H57        -1.6620   -3.4130    0.1030 h1        1 MOL      0.040745
    137 H58        -1.9680   -0.4310   -0.1090 hc        1 MOL      0.175104
    138 H59        -0.4470   -1.2310    0.6310 hc        1 MOL      0.175104
    139 H60        -4.0390   -0.5950    1.1300 ha        1 MOL      0.169623
    140 H61        -0.4360   -2.4290    2.6730 ha        1 MOL      0.169623
    141 H62        -5.1660   -0.9190    3.3410 ha        1 MOL      0.167086
    142 H63        -1.6430   -2.7420    4.8230 ha        1 MOL      0.167086
    143 H64        -4.9490   -1.9720    5.5480 ho        1 MOL      0.430952
    144 N13        -4.0630   -3.1300   -0.4700 n         1 MOL     -0.796533
    145 C48        -5.4780   -3.3000   -0.8520 c3        1 MOL      0.252959
    146 C49        -6.4320   -2.3840   -0.0980 c         1 MOL      0.220202
    147 O21        -7.0180   -2.7550    0.9060 o         1 MOL     -0.427356
    148 C50        -5.9690   -4.7900   -0.6790 c3        1 MOL     -0.002394
    149 C51        -5.1350   -5.6400   -1.6010 c3        1 MOL     -0.086875
    150 C52        -5.4840   -7.1000   -1.4190 c         1 MOL      0.659120
    151 O22        -5.6510   -7.5780   -0.2930 o         1 MOL     -0.682710
    152 O23        -5.6600   -7.7560   -2.4830 o         1 MOL     -0.682710
    153 H65        -3.7660   -3.6580    0.3370 hn        1 MOL      0.400559
    154 H66        -5.5770   -3.0190   -1.8960 h1        1 MOL      0.120051
    155 H67        -7.0090   -4.7500   -0.9990 hc        1 MOL      0.015243
    156 H68        -5.8560   -5.0250    0.3780 hc        1 MOL      0.015243
    157 H69        -4.0510   -5.5130   -1.5430 hc        1 MOL      0.011667
    158 H70        -5.3850   -5.3560   -2.6220 hc        1 MOL      0.011667
    159 N14        -6.6720   -1.1580   -0.5710 n         1 MOL      0.080634
    160 C53        -6.2320   -0.5350   -1.8260 c3        1 MOL     -0.407947
    161 C54        -6.8010   -1.2350   -3.0120 c         1 MOL      0.468840
    162 O24        -7.8490   -1.8900   -2.9200 o         1 MOL     -0.519511
    163 C55        -6.4780    0.9430   -1.8810 c3        1 MOL      0.276552
    164 C56        -5.8630    1.7510   -0.7360 c3        1 MOL     -0.656041
    165 C57        -6.5870    1.7030    0.6290 c         1 MOL      0.772595
    166 O25        -5.9960    2.0810    1.6620 o         1 MOL     -0.576561
    167 O26        -7.7120    1.2120    0.6610 o         1 MOL     -0.576561
    168 H71        -7.1250   -0.5120    0.0520 hn        1 MOL      0.049073
    169 H72        -5.1540   -0.6610   -1.8670 h1        1 MOL      0.226144
    170 H73        -7.5440    1.1440   -1.9530 hc        1 MOL     -0.010517
    171 H74        -5.9920    1.2880   -2.7880 hc        1 MOL     -0.010517
    172 H75        -5.8500    2.7950   -1.0650 hc        1 MOL      0.145808
    173 H76        -4.8220    1.4650   -0.5630 hc        1 MOL      0.145808
    174 N15        -6.0260   -1.2000   -4.0960 n         1 MOL     -0.353988
    175 C58        -6.2870   -1.8720   -5.3640 c3        1 MOL     -0.089266
    176 H77        -7.3110   -2.2450   -5.3730 h1        1 MOL      0.067218
    177 H78        -6.1510   -1.1670   -6.1840 h1        1 MOL      0.067218
    178 H79        -5.5960   -2.7070   -5.4820 h1        1 MOL      0.067218
    179 H80        -5.2050   -0.6120   -4.0580 hn        1 MOL      0.308829
    180 Ca1       -10.1980    1.2890    1.4520 Ca        1 MOL      1.749481
    181 O27        -9.9740    1.8640   -1.1860 oh        1 MOL     -0.772237
    182 H81        -9.4460    2.6530   -1.3160 ho        1 MOL      0.331734
    183 H82       -10.3390    1.6770   -2.0490 ho        1 MOL      0.331734
    184 O28       -10.5140   -0.5000    3.3030 oh        1 MOL     -0.772237
    185 H83       -11.2570   -0.5550    3.9100 ho        1 MOL      0.331734
    186 H84       -10.1270   -1.3690    3.3060 ho        1 MOL      0.331734
    187 O29       -11.9740    2.0570    3.3700 oh        1 MOL     -0.772237
    188 H85       -12.9130    2.1340    3.5430 ho        1 MOL      0.331734
    189 H86       -11.5560    2.5040    4.1020 ho        1 MOL      0.331734
    190 O30       -11.6610    3.4360    0.5320 oh        1 MOL     -0.772237
    191 H87       -11.0540    4.0390    0.1220 ho        1 MOL      0.331734
    192 H88       -12.3500    3.2990   -0.1280 ho        1 MOL      0.331734
    193 O31       -12.5780    0.5450    0.4570 oh        1 MOL     -0.772237
    194 H89       -13.3600    0.5740    0.9980 ho        1 MOL      0.331734
    195 H90       -12.8260    1.0030   -0.3440 ho        1 MOL      0.331734
    196 O32        -9.7170   -1.2370    0.6150 oh        1 MOL     -0.772237
    197 H91        -9.0300   -1.8950    0.7610 ho        1 MOL      0.331734
    198 H92       -10.5340   -1.7140    0.7310 ho        1 MOL      0.331734
    199 O33        -8.0970    1.2440    3.4700 oh        1 MOL     -0.772237
    200 H93        -7.3620    1.4440    2.8830 ho        1 MOL      0.331734
    201 H94        -7.6980    0.7430    4.1810 ho        1 MOL      0.331734
    202 O34        -9.5070    3.8570    2.5810 oh        1 MOL     -0.772237
    203 H95        -9.7670    4.1850    3.4450 ho        1 MOL      0.331734
    204 H96        -8.5950    4.0930    2.4890 ho        1 MOL      0.331734
@<TRIPOS>BOND
     1    1    2 1   
     2    1    4 1   
     3    1    5 1   
     4    1    6 1   
     5    2    3 2   
     6    2    7 1   
     7    7    8 1   
     8    7   15 1   
     9    8    9 1   
    10    8   11 1   
    11    8   16 1   
    12    9   10 2   
    13    9   19 1   
    14   11   12 1   
    15   11   17 1   
    16   11   18 1   
    17   12   13 1   
    18   12   14 1   
    19   19   20 1   
    20   19   27 1   
    21   20   21 1   
    22   20   23 1   
    23   20   28 1   
    24   21   22 2   
    25   21   38 1   
    26   23   24 1   
    27   23   25 1   
    28   23   29 1   
    29   24   26 1   
    30   24   30 1   
    31   24   31 1   
    32   25   32 1   
    33   25   33 1   
    34   25   34 1   
    35   26   35 1   
    36   26   36 1   
    37   26   37 1   
    38   38   39 1   
    39   38   46 1   
    40   39   40 1   
    41   39   42 1   
    42   39   47 1   
    43   40   41 2   
    44   40   50 1   
    45   42   43 1   
    46   42   48 1   
    47   42   49 1   
    48   43   44 1   
    49   43   45 1   
    50   50   51 1   
    51   50   54 1   
    52   51   52 1   
    53   51   55 1   
    54   51   56 1   
    55   52   53 2   
    56   52   57 1   
    57   57   58 1   
    58   57   65 1   
    59   58   59 1   
    60   58   61 1   
    61   58   66 1   
    62   59   60 2   
    63   59   69 1   
    64   61   62 1   
    65   61   67 1   
    66   61   68 1   
    67   62   63 1   
    68   62   64 1   
    69   69   70 1   
    70   69   73 1   
    71   70   71 1   
    72   70   74 1   
    73   70   75 1   
    74   71   72 2   
    75   71   76 1   
    76   76   77 1   
    77   76   85 1   
    78   77   78 1   
    79   77   80 1   
    80   77   86 1   
    81   78   79 2   
    82   78   93 1   
    83   80   81 1   
    84   80   87 1   
    85   80   88 1   
    86   81   82 1   
    87   81   89 1   
    88   81   90 1   
    89   82   83 1   
    90   82   84 2   
    91   83   91 1   
    92   83   92 1   
    93   93   94 1   
    94   93  100 1   
    95   94   95 1   
    96   94   97 1   
    97   94  101 1   
    98   95   96 2   
    99   95  109 1   
   100   97   98 1   
   101   97   99 1   
   102   97  102 1   
   103   98  103 1   
   104   98  104 1   
   105   98  105 1   
   106   99  106 1   
   107   99  107 1   
   108   99  108 1   
   109  109  110 1   
   110  109  117 1   
   111  110  111 1   
   112  110  113 1   
   113  110  118 1   
   114  111  112 2   
   115  111  123 1   
   116  113  114 1   
   117  113  119 1   
   118  113  120 1   
   119  114  115 1   
   120  114  116 2   
   121  115  121 1   
   122  115  122 1   
   123  123  124 1   
   124  123  135 1   
   125  124  125 1   
   126  124  127 1   
   127  124  136 1   
   128  125  126 2   
   129  125  144 1   
   130  127  128 1   
   131  127  137 1   
   132  127  138 1   
   133  128  129 ar  
   134  128  130 ar  
   135  129  131 ar  
   136  129  139 1   
   137  130  132 ar  
   138  130  140 1   
   139  131  133 ar  
   140  131  141 1   
   141  132  133 ar  
   142  132  142 1   
   143  133  134 1   
   144  134  143 1   
   145  144  145 1   
   146  144  153 1   
   147  145  146 1   
   148  145  148 1   
   149  145  154 1   
   150  146  147 2   
   151  146  159 1   
   152  148  149 1   
   153  148  155 1   
   154  148  156 1   
   155  149  150 1   
   156  149  157 1   
   157  149  158 1   
   158  150  151 1   
   159  150  152 1   
   160  159  160 1   
   161  159  168 1   
   162  160  161 1   
   163  160  163 1   
   164  160  169 1   
   165  161  162 2   
   166  161  174 1   
   167  163  164 1   
   168  163  170 1   
   169  163  171 1   
   170  164  165 1   
   171  164  172 1   
   172  164  173 1   
   173  165  166 1   
   174  165  167 1   
   175  174  175 1   
   176  174  179 1   
   177  175  176 1   
   178  175  177 1   
   179  175  178 1   
   180  181  182 1   
   181  181  183 1   
   182  184  185 1   
   183  184  186 1   
   184  187  188 1   
   185  187  189 1   
   186  190  191 1   
   187  190  192 1   
   188  193  194 1   
   189  193  195 1   
   190  196  197 1   
   191  196  198 1   
   192  199  200 1   
   193  199  201 1   
   194  202  203 1   
   195  202  204 1   
@<TRIPOS>SUBSTRUCTURE
     1 MOL         1 TEMP              0 ****  ****    0 ROOT
