@<TRIPOS>MOLECULE
MOL
  191   184     1     0     0
SMALL
resp


@<TRIPOS>ATOM
      1 C1         -5.7640   -2.6280    3.8960 c3        1 MOL     -0.435948
      2 C2         -5.7930   -2.2780    2.4190 c         1 MOL      0.753146
      3 O1         -5.2800   -1.1990    2.0600 o         1 MOL     -0.656644
      4 H1         -6.7850   -2.7350    4.2640 hc        1 MOL      0.105612
      5 H2         -5.2270   -3.5650    4.0380 hc        1 MOL      0.105612
      6 H3         -5.2610   -1.8330    4.4490 hc        1 MOL      0.105612
      7 N1         -6.6080   -2.9830    1.6950 n         1 MOL     -0.662248
      8 C3         -7.1730   -2.7140    0.2740 c3        1 MOL      0.092766
      9 C4         -7.6060   -1.2410   -0.0120 c         1 MOL      0.597931
     10 O2         -8.0120   -0.9650   -1.1680 o         1 MOL     -0.474253
     11 C5         -6.1800   -3.2230   -0.7970 c3        1 MOL     -0.191875
     12 C6         -6.8090   -4.1550   -1.8750 c         1 MOL      0.737216
     13 O3         -6.8330   -3.7910   -3.0550 o         1 MOL     -0.659324
     14 O4         -7.4210   -5.1750   -1.5000 o         1 MOL     -0.659324
     15 H4         -6.8340   -3.9090    2.0340 hn        1 MOL      0.355479
     16 H5         -8.0140   -3.3920    0.1110 h1        1 MOL      0.060125
     17 H6         -5.3000   -3.6940   -0.3760 hc        1 MOL      0.049227
     18 H7         -5.7580   -2.3500   -1.3010 hc        1 MOL      0.049227
     19 N2         -7.7580   -0.4430    1.0150 n         1 MOL     -0.739783
     20 C7         -7.9970    1.0120    0.7650 c3        1 MOL      0.197031
     21 C8         -6.7870    1.7790    0.1850 c         1 MOL      0.434858
     22 O5         -7.0340    2.8540   -0.4230 o         1 MOL     -0.559392
     23 C9         -8.5470    1.7430    2.0050 c3        1 MOL     -0.005641
     24 C10        -9.7090    0.9990    2.6820 c3        1 MOL      0.155045
     25 C11       -10.2180    1.7270    3.8920 c3        1 MOL     -0.023421
     26 C12       -10.9380    0.9480    4.9470 c3        1 MOL      0.073912
     27 N3        -11.1920    1.7220    6.1920 n4        1 MOL     -0.183420
     28 H8         -7.5490   -0.7150    1.9660 hn        1 MOL      0.416697
     29 H9         -8.7870    1.0250    0.0150 h1        1 MOL      0.078761
     30 H10        -8.9100    2.7300    1.7190 hc        1 MOL     -0.005560
     31 H11        -7.6920    1.8350    2.6770 hc        1 MOL     -0.005560
     32 H12        -9.3170    0.0370    3.0040 hc        1 MOL     -0.022665
     33 H13       -10.4470    0.8320    1.9020 hc        1 MOL     -0.022665
     34 H14       -10.9090    2.5080    3.5560 hc        1 MOL      0.014427
     35 H15        -9.3230    2.1390    4.3470 hc        1 MOL      0.014427
     36 H16       -10.3160    0.0820    5.1680 hx        1 MOL      0.042744
     37 H17       -11.8370    0.6140    4.4390 hx        1 MOL      0.042744
     38 H18       -11.6090    2.6350    6.0570 hn        1 MOL      0.198640
     39 H19       -11.8540    1.2330    6.7870 hn        1 MOL      0.198640
     40 H20       -10.3240    1.7950    6.6970 hn        1 MOL      0.198640
     41 N4         -5.5530    1.2820    0.3600 n         1 MOL     -0.321031
     42 C13        -4.3600    1.9730   -0.0750 c3        1 MOL     -0.329805
     43 C14        -4.3450    2.1510   -1.6050 c         1 MOL      0.818627
     44 O6         -4.4610    1.2080   -2.3710 o         1 MOL     -0.544123
     45 C15        -3.0150    1.4080    0.3810 c3        1 MOL      0.460712
     46 C16        -1.8800    2.4560    0.4040 c         1 MOL      0.227688
     47 O7         -1.3900    2.7600   -0.7040 o         1 MOL     -0.615564
     48 O8         -1.5170    2.9840    1.5170 o         1 MOL     -0.615564
     49 H21        -5.5640    0.3710    0.7900 hn        1 MOL      0.302458
     50 H22        -4.4540    2.9740    0.3460 h1        1 MOL      0.099590
     51 H23        -2.8080    0.6280   -0.3570 hc        1 MOL     -0.077238
     52 H24        -3.0400    0.9430    1.3710 hc        1 MOL     -0.077238
     53 N5         -4.0710    3.3520   -2.1560 n         1 MOL     -0.495569
     54 C17        -3.9850    3.5910   -3.6070 c3        1 MOL     -0.035248
     55 C18        -2.9890    2.6850   -4.3570 c         1 MOL      0.301662
     56 O9         -3.0130    2.4660   -5.5940 o         1 MOL     -0.528264
     57 H25        -3.8190    4.0990   -1.5190 hn        1 MOL      0.244011
     58 H26        -3.9280    4.6560   -3.8060 h1        1 MOL      0.111016
     59 H27        -4.9960    3.3340   -3.9310 h1        1 MOL      0.111016
     60 N6         -1.9830    2.2370   -3.6650 n         1 MOL     -0.087403
     61 C19        -0.9430    1.3120   -4.1700 c3        1 MOL     -0.153832
     62 C20        -1.4050   -0.1750   -4.1920 c         1 MOL      0.535632
     63 O10        -0.5520   -1.0990   -4.2410 o         1 MOL     -0.556471
     64 C21         0.3210    1.6300   -3.2640 c3        1 MOL     -0.320766
     65 C22         0.7440    3.0920   -3.4580 c         1 MOL      0.832672
     66 N7          0.9080    3.6170   -4.6560 n         1 MOL     -0.803867
     67 O11         1.0870    3.7760   -2.5200 o         1 MOL     -0.732555
     68 H28        -1.8840    2.6110   -2.7370 hn        1 MOL      0.106662
     69 H29        -0.7760    1.5540   -5.2190 h1        1 MOL      0.119715
     70 H30         1.1390    1.0430   -3.6630 hc        1 MOL      0.123424
     71 H31         0.0600    1.4450   -2.2230 hc        1 MOL      0.123424
     72 H32         1.1050    2.9890   -5.4290 hn        1 MOL      0.380634
     73 H33         1.0970    4.6140   -4.6260 hn        1 MOL      0.380634
     74 N8         -2.7050   -0.4130   -4.1360 n         1 MOL     -0.339122
     75 C23        -3.3200   -1.7260   -3.9970 c3        1 MOL     -0.210686
     76 C24        -2.9040   -2.4410   -2.7140 c         1 MOL      0.563473
     77 O12        -3.2520   -3.6260   -2.5780 o         1 MOL     -0.512853
     78 H34        -3.3410    0.3590   -4.1470 hn        1 MOL      0.322630
     79 H35        -3.0320   -2.3010   -4.8810 h1        1 MOL      0.157477
     80 H36        -4.3970   -1.6260   -4.1550 h1        1 MOL      0.157477
     81 N9         -2.2050   -1.7690   -1.7390 n         1 MOL     -0.406117
     82 C25        -1.5130   -2.3690   -0.5610 c3        1 MOL      0.091399
     83 C26        -0.1340   -1.6080   -0.3970 c         1 MOL      0.392480
     84 O13        -0.1190   -0.4590   -0.5600 o         1 MOL     -0.324420
     85 C27        -2.3170   -2.2550    0.6980 c3        1 MOL     -0.140438
     86 C28        -1.6870   -2.8430    1.9700 ca        1 MOL     -0.012103
     87 C29        -1.4570   -4.2710    2.1340 ca        1 MOL     -0.047243
     88 C30        -1.3940   -2.0020    3.0750 ca        1 MOL     -0.047243
     89 C31        -1.0210   -4.7680    3.3640 ca        1 MOL     -0.355771
     90 C32        -0.9140   -2.5430    4.3440 ca        1 MOL     -0.355771
     91 C33        -0.7440   -3.9500    4.5010 ca        1 MOL      0.399358
     92 O14        -0.3920   -4.5550    5.6650 oh        1 MOL     -0.487188
     93 H37        -2.0620   -0.7890   -1.9470 hn        1 MOL      0.226132
     94 H38        -1.2490   -3.3970   -0.7950 h1        1 MOL      0.067027
     95 H39        -3.3670   -2.5150    0.5630 hc        1 MOL      0.089329
     96 H40        -2.4320   -1.1900    0.8700 hc        1 MOL      0.089329
     97 H41        -1.6740   -4.9750    1.3490 ha        1 MOL      0.124231
     98 H42        -1.5410   -0.9450    2.9770 ha        1 MOL      0.124231
     99 H43        -1.0740   -5.8370    3.4980 ha        1 MOL      0.168638
    100 H44        -0.7470   -1.8550    5.1560 ha        1 MOL      0.168638
    101 H45        -0.2450   -3.9120    6.3700 ho        1 MOL      0.375914
    102 N10         0.9410   -2.3730   -0.0770 n         1 MOL     -0.403861
    103 C34         2.2670   -1.9310    0.2760 c3        1 MOL     -0.028340
    104 C35         3.0940   -1.5370   -1.0110 c         1 MOL      0.327120
    105 O15         3.8500   -0.5700   -0.9360 o         1 MOL     -0.490099
    106 C36         2.8590   -3.1010    1.0870 c3        1 MOL      0.269420
    107 C37         2.1480   -3.2120    2.4670 c3        1 MOL      0.088248
    108 C38         4.3800   -2.8320    1.1780 c3        1 MOL     -0.414051
    109 C39         2.3970   -4.5190    3.2240 c3        1 MOL     -0.234546
    110 H46         0.7060   -3.3240    0.1760 hn        1 MOL      0.232664
    111 H47         2.1360   -1.1040    0.9760 h1        1 MOL      0.014637
    112 H48         2.6390   -3.9700    0.4560 hc        1 MOL     -0.068786
    113 H49         1.0730   -3.0220    2.5120 hc        1 MOL     -0.001899
    114 H50         2.5320   -2.4080    3.1030 hc        1 MOL     -0.001899
    115 H51         4.8100   -2.8060    0.1730 hc        1 MOL      0.106119
    116 H52         4.4960   -1.9200    1.7680 hc        1 MOL      0.106119
    117 H53         4.9760   -3.6300    1.6260 hc        1 MOL      0.106119
    118 H54         3.4590   -4.5890    3.4730 hc        1 MOL      0.057772
    119 H55         1.9020   -4.4600    4.1870 hc        1 MOL      0.057772
    120 H56         2.0500   -5.3640    2.6340 hc        1 MOL      0.057772
    121 N11         2.8150   -2.2420   -2.0960 n         1 MOL     -0.125172
    122 C40         3.4690   -1.9160   -3.3330 c3        1 MOL     -0.234830
    123 C41         5.0300   -2.0940   -3.2960 c         1 MOL      0.519331
    124 O16         5.8080   -1.2750   -3.8810 o         1 MOL     -0.522710
    125 C42         2.8970   -2.8530   -4.3980 c3        1 MOL     -0.033803
    126 O17         2.8120   -4.1720   -4.0430 oh        1 MOL     -0.580685
    127 H57         2.1300   -2.9900   -2.1040 hn        1 MOL      0.297524
    128 H58         3.1570   -0.9210   -3.6580 h1        1 MOL      0.139143
    129 H59         3.5020   -2.7440   -5.3000 h1        1 MOL      0.106717
    130 H60         1.8580   -2.6110   -4.6000 h1        1 MOL      0.106717
    131 H61         3.1820   -4.5280   -4.8510 ho        1 MOL      0.423027
    132 N12         5.5600   -2.9880   -2.4780 n         1 MOL     -0.325819
    133 C43         7.0010   -3.2290   -2.2130 c3        1 MOL      0.307407
    134 C44         7.7720   -1.9620   -1.7520 c         1 MOL      0.396439
    135 O18         9.0060   -1.9410   -1.7990 o         1 MOL     -0.523876
    136 C45         7.6120   -3.9330   -3.3600 c3        1 MOL     -0.501115
    137 H62         4.9000   -3.5620   -1.9700 hn        1 MOL      0.216281
    138 H63         7.0820   -3.9900   -1.4380 h1        1 MOL      0.034580
    139 H64         7.6900   -3.2400   -4.2040 hc        1 MOL      0.136463
    140 H65         8.6370   -4.1820   -3.0840 hc        1 MOL      0.136463
    141 H66         6.9350   -4.7620   -3.5090 hc        1 MOL      0.136463
    142 N13         7.0470   -0.9620   -1.2460 n         1 MOL     -0.488164
    143 C46         7.7490    0.1540   -0.6410 c3        1 MOL      0.617075
    144 C47         8.0280    0.1210    0.8930 c         1 MOL      0.144341
    145 O19         7.2530   -0.5180    1.6040 o         1 MOL     -0.429522
    146 C48         7.0660    1.5120   -1.0090 c3        1 MOL     -0.112508
    147 H67         6.0430   -1.0810   -1.2620 hn        1 MOL      0.211672
    148 H68         8.7150    0.2320   -1.1450 h1        1 MOL     -0.051066
    149 H69         6.5770    1.9920   -0.1520 hc        1 MOL      0.012260
    150 H70         7.8450    2.1840   -1.3580 hc        1 MOL      0.012260
    151 H71         6.4360    1.3310   -1.8790 hc        1 MOL      0.012260
    152 N14         9.0640    0.7920    1.3310 n         1 MOL     -0.364174
    153 C49         9.4220    1.1030    2.6950 c3        1 MOL     -0.127870
    154 C50         9.5280   -0.1780    3.6180 c         1 MOL      0.415282
    155 O20         9.4010   -0.0290    4.8130 o         1 MOL     -0.493563
    156 C51         8.3870    2.0790    3.2340 c3        1 MOL      0.455443
    157 C52         8.1290    3.3360    2.4670 c3        1 MOL     -0.361727
    158 C53         7.2850    4.3250    3.3700 c         1 MOL      0.672628
    159 O21         6.2340    3.9790    3.9340 o         1 MOL     -0.657106
    160 O22         7.8320    5.4080    3.6510 o         1 MOL     -0.657106
    161 H72         9.5940    1.2080    0.5850 hn        1 MOL      0.270138
    162 H73        10.4290    1.5140    2.7770 h1        1 MOL      0.078232
    163 H74         8.6520    2.3850    4.2560 hc        1 MOL     -0.044927
    164 H75         7.4540    1.5580    3.4500 hc        1 MOL     -0.044927
    165 H76         7.5910    3.0310    1.5650 hc        1 MOL      0.028611
    166 H77         9.0330    3.8600    2.1800 hc        1 MOL      0.028611
    167 N15         9.7840   -1.3610    3.0350 n         1 MOL     -0.171285
    168 C54         9.7650   -2.6770    3.7050 c3        1 MOL     -0.293797
    169 H78         8.7500   -2.9020    4.0350 h1        1 MOL      0.119355
    170 H79        10.0980   -3.4460    3.0080 h1        1 MOL      0.119355
    171 H80        10.4300   -2.6560    4.5690 h1        1 MOL      0.119355
    172 H81        10.1380   -1.3440    2.0840 hn        1 MOL      0.211878
    173 Ca1         0.4940    4.2920    0.0370 Ca        1 MOL      1.812110
    174 O23         3.1800    4.2310    0.0100 oh        1 MOL     -0.809136
    175 H82         3.8710    3.9510   -0.5930 ho        1 MOL      0.407352
    176 H83         3.6430    4.4960    0.8090 ho        1 MOL      0.407352
    177 O24        -1.3070    5.9030   -1.0650 oh        1 MOL     -0.809136
    178 H84        -2.1790    5.8770   -0.6960 ho        1 MOL      0.407352
    179 H85        -1.3860    6.4310   -1.8610 ho        1 MOL      0.407352
    180 O25         1.5410    3.4540    2.3280 oh        1 MOL     -0.809136
    181 H86         1.7980    3.6040    3.2420 ho        1 MOL      0.407352
    182 H87         1.6960    2.5200    2.1880 ho        1 MOL      0.407352
    183 O26         1.4330    6.8410   -0.4860 oh        1 MOL     -0.809136
    184 H88         2.2790    7.2500   -0.3040 ho        1 MOL      0.407352
    185 H89         1.0490    7.3610   -1.1920 ho        1 MOL      0.407352
    186 O27         1.3550    1.7480    0.1290 oh        1 MOL     -0.809136
    187 H90         0.8200    0.9810   -0.0400 ho        1 MOL      0.407352
    188 H91         2.2250    1.5030   -0.1830 ho        1 MOL      0.407352
    189 O28        -0.6150    5.8460    1.8910 oh        1 MOL     -0.809136
    190 H92        -1.0900    6.5370    1.4340 ho        1 MOL      0.407352
    191 H93        -1.2290    5.5400    2.5690 ho        1 MOL      0.407352
@<TRIPOS>BOND
     1    1    2 1   
     2    1    4 1   
     3    1    5 1   
     4    1    6 1   
     5    2    3 2   
     6    2    7 1   
     7    7    8 1   
     8    7   15 1   
     9    8    9 1   
    10    8   11 1   
    11    8   16 1   
    12    9   10 2   
    13    9   19 1   
    14   11   12 1   
    15   11   17 1   
    16   11   18 1   
    17   12   13 1   
    18   12   14 1   
    19   19   20 1   
    20   19   28 1   
    21   20   21 1   
    22   20   23 1   
    23   20   29 1   
    24   21   22 2   
    25   21   41 1   
    26   23   24 1   
    27   23   30 1   
    28   23   31 1   
    29   24   25 1   
    30   24   32 1   
    31   24   33 1   
    32   25   26 1   
    33   25   34 1   
    34   25   35 1   
    35   26   27 1   
    36   26   36 1   
    37   26   37 1   
    38   27   38 1   
    39   27   39 1   
    40   27   40 1   
    41   41   42 1   
    42   41   49 1   
    43   42   43 1   
    44   42   45 1   
    45   42   50 1   
    46   43   44 2   
    47   43   53 1   
    48   45   46 1   
    49   45   51 1   
    50   45   52 1   
    51   46   47 1   
    52   46   48 1   
    53   53   54 1   
    54   53   57 1   
    55   54   55 1   
    56   54   58 1   
    57   54   59 1   
    58   55   56 2   
    59   55   60 1   
    60   60   61 1   
    61   60   68 1   
    62   61   62 1   
    63   61   64 1   
    64   61   69 1   
    65   62   63 2   
    66   62   74 1   
    67   64   65 1   
    68   64   70 1   
    69   64   71 1   
    70   65   66 1   
    71   65   67 2   
    72   66   72 1   
    73   66   73 1   
    74   74   75 1   
    75   74   78 1   
    76   75   76 1   
    77   75   79 1   
    78   75   80 1   
    79   76   77 2   
    80   76   81 1   
    81   81   82 1   
    82   81   93 1   
    83   82   83 1   
    84   82   85 1   
    85   82   94 1   
    86   83   84 2   
    87   83  102 1   
    88   85   86 1   
    89   85   95 1   
    90   85   96 1   
    91   86   87 ar  
    92   86   88 ar  
    93   87   89 ar  
    94   87   97 1   
    95   88   90 ar  
    96   88   98 1   
    97   89   91 ar  
    98   89   99 1   
    99   90   91 ar  
   100   90  100 1   
   101   91   92 1   
   102   92  101 1   
   103  102  103 1   
   104  102  110 1   
   105  103  104 1   
   106  103  106 1   
   107  103  111 1   
   108  104  105 2   
   109  104  121 1   
   110  106  107 1   
   111  106  108 1   
   112  106  112 1   
   113  107  109 1   
   114  107  113 1   
   115  107  114 1   
   116  108  115 1   
   117  108  116 1   
   118  108  117 1   
   119  109  118 1   
   120  109  119 1   
   121  109  120 1   
   122  121  122 1   
   123  121  127 1   
   124  122  123 1   
   125  122  125 1   
   126  122  128 1   
   127  123  124 2   
   128  123  132 1   
   129  125  126 1   
   130  125  129 1   
   131  125  130 1   
   132  126  131 1   
   133  132  133 1   
   134  132  137 1   
   135  133  134 1   
   136  133  136 1   
   137  133  138 1   
   138  134  135 2   
   139  134  142 1   
   140  136  139 1   
   141  136  140 1   
   142  136  141 1   
   143  142  143 1   
   144  142  147 1   
   145  143  144 1   
   146  143  146 1   
   147  143  148 1   
   148  144  145 2   
   149  144  152 1   
   150  146  149 1   
   151  146  150 1   
   152  146  151 1   
   153  152  153 1   
   154  152  161 1   
   155  153  154 1   
   156  153  156 1   
   157  153  162 1   
   158  154  155 2   
   159  154  167 1   
   160  156  157 1   
   161  156  163 1   
   162  156  164 1   
   163  157  158 1   
   164  157  165 1   
   165  157  166 1   
   166  158  159 1   
   167  158  160 1   
   168  167  168 1   
   169  167  172 1   
   170  168  169 1   
   171  168  170 1   
   172  168  171 1   
   173  174  175 1   
   174  174  176 1   
   175  177  178 1   
   176  177  179 1   
   177  180  181 1   
   178  180  182 1   
   179  183  184 1   
   180  183  185 1   
   181  186  187 1   
   182  186  188 1   
   183  189  190 1   
   184  189  191 1   
@<TRIPOS>SUBSTRUCTURE
     1 MOL         1 TEMP              0 ****  ****    0 ROOT
