@<TRIPOS>MOLECULE
MOL
  178   175     1     0     0
SMALL
resp


@<TRIPOS>ATOM
      1 C1          3.6470   -1.9600    2.7650 c3        1 MOL     -0.559699
      2 C2          4.9600   -1.1200    2.4570 c         1 MOL      0.683609
      3 O1          4.9140   -0.1300    1.8040 o         1 MOL     -0.568048
      4 H1          3.1270   -2.1760    1.8320 hc        1 MOL      0.157744
      5 H2          3.9200   -2.8960    3.2530 hc        1 MOL      0.157744
      6 H3          2.9940   -1.3860    3.4210 hc        1 MOL      0.157744
      7 N1          6.1660   -1.4880    2.9320 n         1 MOL     -0.473466
      8 C3          7.4350   -0.8630    2.8310 c3        1 MOL      0.038431
      9 C4          8.0610   -1.1720    1.4520 c         1 MOL      0.617001
     10 O2          8.1890   -2.3360    1.0970 o         1 MOL     -0.560305
     11 C5          8.2030   -1.5440    3.9740 c3        1 MOL     -0.144133
     12 C6          9.5850   -0.8960    4.0710 c         1 MOL      0.679893
     13 O3          9.8320    0.2660    3.5280 o         1 MOL     -0.726649
     14 O4         10.4080   -1.5010    4.8070 o         1 MOL     -0.726649
     15 H4          6.0440   -2.1850    3.6580 hn        1 MOL      0.242614
     16 H5          7.3990    0.2130    2.9460 h1        1 MOL      0.046127
     17 H6          8.3540   -2.6090    3.8270 hc        1 MOL      0.034869
     18 H7          7.6730   -1.4600    4.9210 hc        1 MOL      0.034869
     19 N2          8.3600   -0.1920    0.6230 n         1 MOL     -0.576487
     20 C7          8.5870   -0.4060   -0.7680 c3        1 MOL      0.487432
     21 C8          7.4020   -1.0590   -1.4910 c         1 MOL      0.405834
     22 O5          7.5140   -1.5520   -2.6010 o         1 MOL     -0.571536
     23 C9          9.0640    0.8290   -1.4240 c3        1 MOL     -0.320136
     24 H8          8.0410    0.7430    0.8640 hn        1 MOL      0.283908
     25 H9          9.3900   -1.1370   -0.9220 h1        1 MOL     -0.002445
     26 H10         9.4210    0.6340   -2.4330 hc        1 MOL      0.065529
     27 H11         8.2100    1.4990   -1.4790 hc        1 MOL      0.065529
     28 H12         9.8930    1.1410   -0.7850 hc        1 MOL      0.065529
     29 N3          6.1520   -0.9210   -0.9430 n         1 MOL     -0.418311
     30 C10         4.8360   -1.4970   -1.3770 c3        1 MOL      0.262355
     31 C11         4.3140   -1.1920   -2.7590 c         1 MOL      0.329293
     32 O6          3.5460   -1.9650   -3.3660 o         1 MOL     -0.488503
     33 C12         4.7870   -3.0120   -1.0360 c3        1 MOL     -0.005381
     34 C13         3.3440   -3.5610   -1.0830 c         1 MOL      0.701995
     35 O7          3.1510   -4.6220   -1.7420 o         1 MOL     -0.798017
     36 O8          2.4030   -2.9770   -0.5040 o         1 MOL     -0.798017
     37 H13         6.2550   -0.3120   -0.1500 hn        1 MOL      0.169516
     38 H14         4.1000   -1.0700   -0.7000 h1        1 MOL      0.022738
     39 H15         4.9960   -3.2050    0.0200 hc        1 MOL      0.002978
     40 H16         5.5000   -3.5160   -1.6900 hc        1 MOL      0.002978
     41 N4          4.6920   -0.0650   -3.3020 n         1 MOL     -0.040274
     42 C14         4.4180    0.5260   -4.6280 c3        1 MOL     -0.404488
     43 C15         3.4650    1.7200   -4.6420 c         1 MOL      0.611905
     44 O9          3.0560    2.2550   -5.6680 o         1 MOL     -0.554891
     45 H17         5.3750    0.3580   -2.6870 hn        1 MOL      0.159723
     46 H18         3.8470   -0.1750   -5.2350 h1        1 MOL      0.169998
     47 H19         5.3730    0.7980   -5.0640 h1        1 MOL      0.169998
     48 N5          2.9910    2.0920   -3.4280 n         1 MOL     -0.472540
     49 C16         1.8550    3.0140   -3.2220 c3        1 MOL     -0.005657
     50 C17         1.9770    4.0460   -2.0150 c         1 MOL      0.474456
     51 O10         1.9970    3.6960   -0.8630 o         1 MOL     -0.459870
     52 C18         0.6630    2.0270   -3.0590 c3        1 MOL     -0.299437
     53 C19        -0.6150    2.7600   -2.9160 c         1 MOL      0.512052
     54 N6         -1.0780    3.0770   -1.7200 n         1 MOL     -0.632291
     55 O11        -1.2830    3.1470   -3.8850 o         1 MOL     -0.544230
     56 H20         3.4400    1.7710   -2.5870 hn        1 MOL      0.256989
     57 H21         1.7010    3.5970   -4.1290 h1        1 MOL      0.093251
     58 H22         0.8350    1.4710   -2.1320 hc        1 MOL      0.169132
     59 H23         0.5710    1.3530   -3.9070 hc        1 MOL      0.169132
     60 H24        -0.7520    2.6240   -0.8780 hn        1 MOL      0.372270
     61 H25        -1.8150    3.7690   -1.6860 hn        1 MOL      0.372270
     62 N7          1.9430    5.3040   -2.3520 n         1 MOL     -0.308880
     63 C20         1.7480    6.4170   -1.3940 c3        1 MOL     -0.247548
     64 C21         0.3020    6.5550   -0.9580 c         1 MOL      0.566826
     65 O12        -0.6020    6.5500   -1.7810 o         1 MOL     -0.490681
     66 H26         2.0480    5.4660   -3.3450 hn        1 MOL      0.279384
     67 H27         2.0110    7.3680   -1.8610 h1        1 MOL      0.119124
     68 H28         2.3690    6.2170   -0.5180 h1        1 MOL      0.119124
     69 N8          0.0340    6.5930    0.3400 n         1 MOL     -0.476462
     70 C22        -1.3450    6.7350    0.9090 c3        1 MOL     -0.043654
     71 C23        -1.9160    5.4420    1.5340 c         1 MOL      0.571808
     72 O13        -3.1370    5.2070    1.6560 o         1 MOL     -0.581990
     73 C24        -1.4300    7.9430    1.8390 c3        1 MOL      0.442997
     74 C25        -0.6750    7.9070    3.2080 c3        1 MOL     -0.185104
     75 O14        -0.9720    9.1210    1.2920 oh        1 MOL     -0.623126
     76 H29         0.7920    6.7800    0.9780 hn        1 MOL      0.289294
     77 H30        -2.0830    6.9040    0.1300 h1        1 MOL      0.079813
     78 H31        -2.4660    8.0950    2.1380 h1        1 MOL      0.020842
     79 H32        -0.0600    9.0130    1.0210 ho        1 MOL      0.364476
     80 H33        -0.7240    8.8250    3.7990 hc        1 MOL      0.032113
     81 H34        -1.0360    7.0550    3.7720 hc        1 MOL      0.032113
     82 H35         0.3540    7.6440    2.9990 hc        1 MOL      0.032113
     83 N9         -1.0440    4.5840    2.0820 n         1 MOL     -0.580172
     84 C26        -1.3890    3.2520    2.6630 c3        1 MOL      0.261216
     85 C27        -1.1170    2.0660    1.6600 c         1 MOL      0.360516
     86 O15        -0.0660    1.9900    1.0250 o         1 MOL     -0.516013
     87 C28        -0.8550    3.0370    4.0600 c3        1 MOL      0.159557
     88 C29        -1.2330    4.1160    5.0830 c3        1 MOL     -0.068767
     89 C30        -1.2530    1.6150    4.5970 c3        1 MOL     -0.219898
     90 C31        -2.7060    4.4960    5.1090 c3        1 MOL     -0.088468
     91 H36        -0.0820    4.8570    2.1670 hn        1 MOL      0.296368
     92 H37        -2.4700    3.1860    2.6890 h1        1 MOL      0.056992
     93 H38         0.2240    3.0500    3.9320 hc        1 MOL     -0.012858
     94 H39        -0.6060    4.9840    4.8850 hc        1 MOL      0.016658
     95 H40        -0.8470    3.8040    6.0630 hc        1 MOL      0.016658
     96 H41        -0.8910    1.6300    5.6210 hc        1 MOL      0.047772
     97 H42        -2.3330    1.5380    4.5150 hc        1 MOL      0.047772
     98 H43        -0.7920    0.7960    4.0500 hc        1 MOL      0.047772
     99 H44        -2.8870    4.9820    4.1520 hc        1 MOL      0.021013
    100 H45        -3.3400    3.6090    5.1710 hc        1 MOL      0.021013
    101 H46        -2.8950    5.1830    5.9440 hc        1 MOL      0.021013
    102 N10        -2.0150    1.0820    1.4960 n         1 MOL     -0.316634
    103 C32        -1.8530   -0.1570    0.6250 c3        1 MOL      0.181911
    104 C33        -3.2910   -0.5150    0.0530 c         1 MOL      0.399967
    105 O16        -3.6180   -1.6620   -0.3010 o         1 MOL     -0.425652
    106 C34        -1.1900   -1.2990    1.4390 c3        1 MOL     -0.301691
    107 C35        -0.9050   -2.5080    0.5480 c         1 MOL      0.788379
    108 O17        -0.8140   -2.3550   -0.7360 o         1 MOL     -0.738011
    109 O18        -0.4080   -3.5570    1.0190 o         1 MOL     -0.738011
    110 H47        -2.9200    1.1070    1.9350 hn        1 MOL      0.222663
    111 H48        -1.2210   -0.0610   -0.2610 h1        1 MOL      0.047237
    112 H49        -1.8150   -1.5000    2.3120 hc        1 MOL      0.099259
    113 H50        -0.2590   -0.8400    1.7510 hc        1 MOL      0.099259
    114 N11        -4.1330    0.5450   -0.1050 n         1 MOL     -0.446428
    115 C36        -5.4910    0.3320   -0.6130 c3        1 MOL      0.582981
    116 C37        -6.2830   -0.7150    0.1210 c         1 MOL     -0.031441
    117 O19        -6.3550   -0.6770    1.3450 o         1 MOL     -0.451138
    118 C38        -6.2400    1.7290   -0.7950 c3        1 MOL     -0.139835
    119 C39        -5.4720    2.8240   -1.5310 ca        1 MOL      0.031592
    120 C40        -4.8880    3.8740   -0.8200 ca        1 MOL     -0.152873
    121 C41        -5.3450    2.7710   -2.9360 ca        1 MOL     -0.152873
    122 C42        -4.2320    4.9480   -1.4820 ca        1 MOL     -0.130333
    123 C43        -4.6650    3.8270   -3.6010 ca        1 MOL     -0.130333
    124 C44        -4.1370    4.9030   -2.9100 ca        1 MOL     -0.095924
    125 H51        -3.8290    1.5000    0.0590 hn        1 MOL      0.144058
    126 H52        -5.4180    0.0470   -1.6660 h1        1 MOL     -0.087498
    127 H53        -6.5880    2.0970    0.1620 hc        1 MOL      0.048466
    128 H54        -7.1470    1.5200   -1.3600 hc        1 MOL      0.048466
    129 H55        -4.8580    3.8330    0.2550 ha        1 MOL      0.126975
    130 H56        -5.7740    1.9700   -3.5120 ha        1 MOL      0.126975
    131 H57        -3.7640    5.7690   -0.9680 ha        1 MOL      0.122624
    132 H58        -4.5810    3.9320   -4.6720 ha        1 MOL      0.122624
    133 H59        -3.7860    5.7470   -3.4800 ha        1 MOL      0.113455
    134 N12        -7.0520   -1.6130   -0.5620 n         1 MOL      0.019832
    135 C45        -7.9520   -2.6220    0.0400 c3        1 MOL      0.295432
    136 C46        -7.1870   -3.6980    0.9120 c         1 MOL      0.156414
    137 O20        -7.7850   -4.3830    1.7000 o         1 MOL     -0.498958
    138 C47        -8.8380   -3.2330   -1.0370 c3        1 MOL     -0.259327
    139 C48        -8.6140   -2.2970   -2.2430 c3        1 MOL     -0.199041
    140 C49        -7.2270   -1.7420   -2.0140 c3        1 MOL     -0.066984
    141 H60        -8.6010   -2.0420    0.6870 h1        1 MOL      0.030418
    142 H61        -8.4460   -4.1980   -1.3690 hc        1 MOL      0.111867
    143 H62        -9.8710   -3.1430   -0.7110 hc        1 MOL      0.111867
    144 H63        -8.4870   -2.8440   -3.1710 hc        1 MOL      0.075540
    145 H64        -9.2450   -1.3960   -2.2610 hc        1 MOL      0.075540
    146 H65        -6.5070   -2.4420   -2.4400 h1        1 MOL      0.076076
    147 H66        -7.1980   -0.8330   -2.6100 h1        1 MOL      0.076076
    148 N13        -5.8920   -3.8870    0.7140 n         1 MOL     -0.022290
    149 C50        -5.0720   -4.8850    1.4360 c3        1 MOL     -0.278284
    150 C51        -4.8830   -4.6150    2.9200 c         1 MOL      0.477799
    151 O21        -4.4970   -5.5290    3.6580 o         1 MOL     -0.534012
    152 C52        -3.6690   -4.8990    0.8110 c3        1 MOL      0.248136
    153 C53        -3.6920   -5.6060   -0.5860 c3        1 MOL     -0.167278
    154 C54        -2.1940   -5.6950   -1.0570 c         1 MOL      0.687515
    155 O22        -1.9420   -5.1700   -2.1530 o         1 MOL     -0.749549
    156 O23        -1.2860   -6.2210   -0.3390 o         1 MOL     -0.749549
    157 H67        -5.3410   -3.3130    0.0870 hn        1 MOL      0.134599
    158 H68        -5.4470   -5.9040    1.3450 h1        1 MOL      0.148837
    159 H69        -3.0930   -5.5640    1.4480 hc        1 MOL     -0.027408
    160 H70        -3.2260   -3.8980    0.8900 hc        1 MOL     -0.027408
    161 H71        -4.3060   -5.0030   -1.2620 hc        1 MOL      0.015709
    162 H72        -4.1360   -6.5950   -0.4710 hc        1 MOL      0.015709
    163 N14        -5.1180   -3.3390    3.4250 n         1 MOL     -0.136872
    164 C55        -4.8900   -2.9450    4.8140 c3        1 MOL     -0.378135
    165 H73        -3.8220   -2.8040    4.9810 h1        1 MOL      0.129703
    166 H74        -5.4150   -2.0120    5.0190 h1        1 MOL      0.129703
    167 H75        -5.2610   -3.7240    5.4790 h1        1 MOL      0.129703
    168 H76        -5.5920   -2.7840    2.7320 hn        1 MOL      0.198875
    169 Ca1         0.5810   -4.6100   -1.1740 Ca        1 MOL      1.821189
    170 O24         1.7210   -5.8190    0.8080 oh        1 MOL     -0.794175
    171 H77         1.7570   -5.6360    1.7470 ho        1 MOL      0.394360
    172 H78         2.4310   -6.4530    0.6580 ho        1 MOL      0.394360
    173 O25         1.0750   -6.9620   -2.3170 oh        1 MOL     -0.794175
    174 H79         1.2990   -7.7740   -1.8590 ho        1 MOL      0.394360
    175 H80         1.4550   -7.0690   -3.1910 ho        1 MOL      0.394360
    176 O26         0.5290   -4.1590   -3.7720 oh        1 MOL     -0.794175
    177 H81         0.5570   -4.6890   -4.5760 ho        1 MOL      0.394360
    178 H82         0.6250   -3.2660   -4.0860 ho        1 MOL      0.394360
@<TRIPOS>BOND
     1    1    2 1   
     2    1    4 1   
     3    1    5 1   
     4    1    6 1   
     5    2    3 2   
     6    2    7 1   
     7    7    8 1   
     8    7   15 1   
     9    8    9 1   
    10    8   11 1   
    11    8   16 1   
    12    9   10 2   
    13    9   19 1   
    14   11   12 1   
    15   11   17 1   
    16   11   18 1   
    17   12   13 1   
    18   12   14 1   
    19   19   20 1   
    20   19   24 1   
    21   20   21 1   
    22   20   23 1   
    23   20   25 1   
    24   21   22 2   
    25   21   29 1   
    26   23   26 1   
    27   23   27 1   
    28   23   28 1   
    29   29   30 1   
    30   29   37 1   
    31   30   31 1   
    32   30   33 1   
    33   30   38 1   
    34   31   32 2   
    35   31   41 1   
    36   33   34 1   
    37   33   39 1   
    38   33   40 1   
    39   34   35 1   
    40   34   36 1   
    41   41   42 1   
    42   41   45 1   
    43   42   43 1   
    44   42   46 1   
    45   42   47 1   
    46   43   44 2   
    47   43   48 1   
    48   48   49 1   
    49   48   56 1   
    50   49   50 1   
    51   49   52 1   
    52   49   57 1   
    53   50   51 2   
    54   50   62 1   
    55   52   53 1   
    56   52   58 1   
    57   52   59 1   
    58   53   54 1   
    59   53   55 2   
    60   54   60 1   
    61   54   61 1   
    62   62   63 1   
    63   62   66 1   
    64   63   64 1   
    65   63   67 1   
    66   63   68 1   
    67   64   65 2   
    68   64   69 1   
    69   69   70 1   
    70   69   76 1   
    71   70   71 1   
    72   70   73 1   
    73   70   77 1   
    74   71   72 2   
    75   71   83 1   
    76   73   74 1   
    77   73   75 1   
    78   73   78 1   
    79   74   80 1   
    80   74   81 1   
    81   74   82 1   
    82   75   79 1   
    83   83   84 1   
    84   83   91 1   
    85   84   85 1   
    86   84   87 1   
    87   84   92 1   
    88   85   86 2   
    89   85  102 1   
    90   87   88 1   
    91   87   89 1   
    92   87   93 1   
    93   88   90 1   
    94   88   94 1   
    95   88   95 1   
    96   89   96 1   
    97   89   97 1   
    98   89   98 1   
    99   90   99 1   
   100   90  100 1   
   101   90  101 1   
   102  102  103 1   
   103  102  110 1   
   104  103  104 1   
   105  103  106 1   
   106  103  111 1   
   107  104  105 2   
   108  104  114 1   
   109  106  107 1   
   110  106  112 1   
   111  106  113 1   
   112  107  108 1   
   113  107  109 1   
   114  114  115 1   
   115  114  125 1   
   116  115  116 1   
   117  115  118 1   
   118  115  126 1   
   119  116  117 2   
   120  116  134 1   
   121  118  119 1   
   122  118  127 1   
   123  118  128 1   
   124  119  120 ar  
   125  119  121 ar  
   126  120  122 ar  
   127  120  129 1   
   128  121  123 ar  
   129  121  130 1   
   130  122  124 ar  
   131  122  131 1   
   132  123  124 ar  
   133  123  132 1   
   134  124  133 1   
   135  134  135 1   
   136  134  140 1   
   137  135  136 1   
   138  135  138 1   
   139  135  141 1   
   140  136  137 2   
   141  136  148 1   
   142  138  139 1   
   143  138  142 1   
   144  138  143 1   
   145  139  140 1   
   146  139  144 1   
   147  139  145 1   
   148  140  146 1   
   149  140  147 1   
   150  148  149 1   
   151  148  157 1   
   152  149  150 1   
   153  149  152 1   
   154  149  158 1   
   155  150  151 2   
   156  150  163 1   
   157  152  153 1   
   158  152  159 1   
   159  152  160 1   
   160  153  154 1   
   161  153  161 1   
   162  153  162 1   
   163  154  155 1   
   164  154  156 1   
   165  163  164 1   
   166  163  168 1   
   167  164  165 1   
   168  164  166 1   
   169  164  167 1   
   170  170  171 1   
   171  170  172 1   
   172  173  174 1   
   173  173  175 1   
   174  176  177 1   
   175  176  178 1   
@<TRIPOS>SUBSTRUCTURE
     1 MOL         1 TEMP              0 ****  ****    0 ROOT
