@<TRIPOS>MOLECULE
MOL
  192   187     1     0     0
SMALL
resp


@<TRIPOS>ATOM
      1 C1         -9.7740   -0.2300   -2.2200 c3        1 MOL     -0.375962
      2 C2         -8.6030   -0.2570   -1.1770 c         1 MOL      0.649224
      3 O1         -7.4470   -0.2470   -1.7030 o         1 MOL     -0.559166
      4 H1        -10.2670    0.7420   -2.1870 hc        1 MOL      0.101665
      5 H2         -9.3760   -0.4010   -3.2190 hc        1 MOL      0.101665
      6 H3        -10.4960   -1.0100   -1.9770 hc        1 MOL      0.101665
      7 N1         -8.8420   -0.3440    0.1870 n         1 MOL     -0.625865
      8 C3         -7.7190   -0.5500    1.0920 c3        1 MOL      0.239942
      9 C4         -7.3070   -2.0420    1.1070 c         1 MOL      0.346724
     10 O2         -7.6140   -2.7410    2.1000 o         1 MOL     -0.482652
     11 C5         -8.0770   -0.0660    2.5030 c3        1 MOL     -0.355442
     12 C6         -8.1870    1.4240    2.6120 c         1 MOL      0.737567
     13 O3         -7.8920    2.1470    1.6780 o         1 MOL     -0.622999
     14 O4         -8.6130    1.9990    3.6690 o         1 MOL     -0.622999
     15 H4         -9.7490   -0.4930    0.6160 hn        1 MOL      0.374262
     16 H5         -6.8630    0.0620    0.8200 h1        1 MOL      0.119068
     17 H6         -7.4560   -0.4960    3.2910 hc        1 MOL      0.095949
     18 H7         -9.0380   -0.5310    2.7070 hc        1 MOL      0.095949
     19 N2         -6.6230   -2.5210    0.0400 n         1 MOL     -0.295073
     20 C7         -6.0330   -3.8260   -0.0470 c3        1 MOL      0.433081
     21 C8         -4.6700   -4.0200    0.5810 c         1 MOL      0.406560
     22 O5         -4.3970   -4.9390    1.3960 o         1 MOL     -0.543114
     23 C9         -6.1090   -4.4380   -1.5030 c3        1 MOL     -0.217116
     24 C10        -7.5620   -4.3570   -1.9420 c3        1 MOL      0.032222
     25 C11        -7.9450   -5.2140   -3.1470 c3        1 MOL      0.216148
     26 C12        -9.3600   -5.0530   -3.5700 c3        1 MOL     -0.139641
     27 N3         -9.6320   -5.9700   -4.6980 n4        1 MOL     -0.019008
     28 H8         -6.7360   -1.9070   -0.7510 hn        1 MOL      0.118535
     29 H9         -6.6660   -4.5420    0.4690 h1        1 MOL     -0.034177
     30 H10        -5.7230   -5.4590   -1.4690 hc        1 MOL      0.054449
     31 H11        -5.6470   -3.8730   -2.3160 hc        1 MOL      0.054449
     32 H12        -7.7600   -3.3030   -2.1730 hc        1 MOL     -0.019779
     33 H13        -8.1970   -4.5930   -1.0850 hc        1 MOL     -0.019779
     34 H14        -7.6760   -6.2630   -3.0130 hc        1 MOL     -0.022842
     35 H15        -7.3000   -4.8960   -3.9630 hc        1 MOL     -0.022842
     36 H16        -9.5330   -4.0180   -3.8570 hx        1 MOL      0.091218
     37 H17       -10.0270   -5.3470   -2.7580 hx        1 MOL      0.091218
     38 H18       -10.5790   -6.3290   -4.6690 hn        1 MOL      0.183423
     39 H19        -9.6750   -5.5710   -5.6310 hn        1 MOL      0.183423
     40 H20        -9.0480   -6.7880   -4.8240 hn        1 MOL      0.183423
     41 N4         -3.6660   -3.1580    0.3210 n         1 MOL     -0.432677
     42 C13        -3.6310   -2.0460   -0.6610 c3        1 MOL     -0.015923
     43 C14        -3.8880   -0.6920    0.0460 c         1 MOL      0.341416
     44 O6         -3.8350   -0.6680    1.2830 o         1 MOL     -0.448928
     45 C15        -2.2870   -1.8660   -1.4300 c3        1 MOL     -0.072214
     46 C16        -1.1100   -2.1850   -0.5700 c         1 MOL      0.609879
     47 O7         -0.6580   -1.3690    0.2420 o         1 MOL     -0.675836
     48 O8         -0.5730   -3.2970   -0.6440 o         1 MOL     -0.675836
     49 H21        -2.8170   -3.2810    0.8500 hn        1 MOL      0.380967
     50 H22        -4.3850   -2.3030   -1.4020 h1        1 MOL      0.064699
     51 H23        -2.1690   -0.8040   -1.6260 hc        1 MOL      0.011356
     52 H24        -2.2760   -2.5040   -2.3150 hc        1 MOL      0.011356
     53 N5         -4.2250    0.4070   -0.6350 n         1 MOL     -0.056105
     54 C17        -4.3580    1.7670   -0.2610 c3        1 MOL     -0.452170
     55 C18        -3.1830    2.4830    0.3680 c         1 MOL      0.927408
     56 O9         -2.0250    2.0020    0.2890 o         1 MOL     -0.783570
     57 H25        -4.4530    0.1260   -1.5830 hn        1 MOL      0.201179
     58 H26        -5.2570    1.8120    0.3680 h1        1 MOL      0.142215
     59 H27        -4.6560    2.2480   -1.1980 h1        1 MOL      0.142215
     60 N6         -3.4320    3.7200    0.9270 n         1 MOL     -0.660152
     61 C19        -2.4770    4.5610    1.6490 c3        1 MOL      0.417810
     62 C20        -2.8640    6.0520    1.4650 c         1 MOL      0.386013
     63 O10        -3.9910    6.4150    1.2380 o         1 MOL     -0.517768
     64 C21        -2.3470    4.2160    3.1290 c3        1 MOL     -0.327435
     65 C22        -1.8950    2.7860    3.4160 c         1 MOL      0.677319
     66 O11        -0.7770    2.4920    2.8730 o         1 MOL     -0.651412
     67 O12        -2.5860    2.0370    4.1670 o         1 MOL     -0.651412
     68 H28        -4.4020    3.9810    1.0430 hn        1 MOL      0.328107
     69 H29        -1.5250    4.2980    1.2030 h1        1 MOL      0.007108
     70 H30        -3.3330    4.4200    3.5400 hc        1 MOL      0.078758
     71 H31        -1.6510    4.8380    3.6920 hc        1 MOL      0.078758
     72 N7         -1.9860    7.0260    1.6140 n         1 MOL     -0.363507
     73 C23        -0.4900    7.0060    1.8450 c3        1 MOL     -0.186363
     74 C24         0.2830    6.4340    0.6770 c         1 MOL      0.849344
     75 O13        -0.0010    6.7520   -0.4360 o         1 MOL     -0.580683
     76 H32        -2.4440    7.8880    1.3360 hn        1 MOL      0.308887
     77 H33        -0.1540    6.3270    2.6240 h1        1 MOL      0.080951
     78 H34        -0.2020    8.0570    1.8890 h1        1 MOL      0.080951
     79 N8          1.3020    5.6460    1.0290 n         1 MOL     -0.842323
     80 C25         2.3130    5.1040   -0.0080 c3        1 MOL      0.187983
     81 C26         1.6520    3.8810   -0.5630 c         1 MOL      0.781863
     82 O14         1.1210    3.0350    0.1220 o         1 MOL     -0.714301
     83 C27         3.6460    4.6550    0.6330 c3        1 MOL      0.397924
     84 C28         4.5840    5.8730    0.7140 c3        1 MOL     -0.323964
     85 O15         4.3180    3.6550   -0.0920 oh        1 MOL     -0.665331
     86 H35         1.3750    5.3650    1.9950 hn        1 MOL      0.379882
     87 H36         2.5130    5.7670   -0.8580 h1        1 MOL      0.038769
     88 H37         3.4400    4.3730    1.6630 h1        1 MOL      0.009077
     89 H38         5.1050    3.3340    0.3600 ho        1 MOL      0.413966
     90 H39         4.1300    6.7370    1.1820 hc        1 MOL      0.082830
     91 H40         5.4640    5.6410    1.3150 hc        1 MOL      0.082830
     92 H41         4.9120    6.1370   -0.2890 hc        1 MOL      0.082830
     93 N9          1.6290    3.6620   -1.9200 n         1 MOL     -0.839910
     94 C29         1.0020    2.5550   -2.6150 c3        1 MOL      0.398078
     95 C30         1.5190    1.1670   -2.2650 c         1 MOL      0.417307
     96 O16         0.9750    0.5260   -1.3640 o         1 MOL     -0.619093
     97 C31        -0.5380    2.6590   -2.7660 c3        1 MOL      0.246171
     98 C32        -1.0890    4.0790   -2.9920 c3        1 MOL      0.049953
     99 C33        -0.9480    1.5260   -3.8240 c3        1 MOL     -0.840778
    100 C34        -2.5560    3.9870   -3.1000 c3        1 MOL     -0.226195
    101 H42         2.1070    4.3790   -2.4590 hn        1 MOL      0.340130
    102 H43         1.2550    2.7700   -3.6530 h1        1 MOL     -0.045502
    103 H44        -0.9940    2.3400   -1.8280 hc        1 MOL      0.124808
    104 H45        -0.7040    4.4010   -3.9650 hc        1 MOL     -0.006883
    105 H46        -0.7980    4.7390   -2.1770 hc        1 MOL     -0.006883
    106 H47        -2.0130    1.3560   -3.9070 hc        1 MOL      0.193423
    107 H48        -0.6340    1.8850   -4.8030 hc        1 MOL      0.193423
    108 H49        -0.5360    0.5300   -3.6930 hc        1 MOL      0.193423
    109 H50        -2.9470    3.3540   -2.3010 hc        1 MOL      0.055804
    110 H51        -3.0000    4.9880   -3.0740 hc        1 MOL      0.055804
    111 H52        -2.8780    3.5630   -4.0520 hc        1 MOL      0.055804
    112 N10         2.5290    0.7220   -2.9280 n         1 MOL     -0.308005
    113 C35         2.8900   -0.7210   -2.9250 c3        1 MOL     -0.144878
    114 C36         4.3490   -1.0990   -3.0880 c         1 MOL      0.409906
    115 O17         4.7420   -2.2660   -3.1090 o         1 MOL     -0.494684
    116 C37         2.1290   -1.4320   -4.0090 c3        1 MOL      0.358174
    117 C38         2.2080   -0.8880   -5.5040 c3        1 MOL     -0.173313
    118 O18         0.7840   -1.6650   -3.6070 oh        1 MOL     -0.607745
    119 H53         3.0790    1.4000   -3.4190 hn        1 MOL      0.254984
    120 H54         2.6990   -1.2390   -1.9860 h1        1 MOL      0.217713
    121 H55         2.5580   -2.4380   -4.0280 h1        1 MOL      0.027992
    122 H56         0.5180   -1.3340   -2.7440 ho        1 MOL      0.393885
    123 H57         1.5770   -1.5390   -6.1140 hc        1 MOL      0.039093
    124 H58         1.8770    0.1610   -5.5180 hc        1 MOL      0.039093
    125 H59         3.2210   -0.9390   -5.8940 hc        1 MOL      0.039093
    126 N11         5.2280   -0.0490   -3.2280 n         1 MOL     -0.263809
    127 C39         6.6290   -0.0620   -2.9150 c3        1 MOL     -0.026201
    128 C40         6.9100   -0.5700   -1.4580 c         1 MOL      0.559200
    129 O19         7.3270    0.2770   -0.6750 o         1 MOL     -0.517170
    130 C41         7.3220    1.2930   -3.2160 c3        1 MOL      0.261749
    131 C42         7.6140    1.6400   -4.6800 c3        1 MOL     -0.234700
    132 O20         6.6400    2.5230   -2.8390 oh        1 MOL     -0.616492
    133 H60         4.8210    0.8640   -3.3140 hn        1 MOL      0.258988
    134 H61         7.0670   -0.7080   -3.6800 h1        1 MOL      0.036402
    135 H62         8.3000    1.3110   -2.7370 h1        1 MOL      0.020712
    136 H63         7.2550    3.2440   -2.9610 ho        1 MOL      0.399874
    137 H64         8.1980    2.5470   -4.8550 hc        1 MOL      0.056486
    138 H65         8.2660    0.8620   -5.0690 hc        1 MOL      0.056486
    139 H66         6.6790    1.7170   -5.2350 hc        1 MOL      0.056486
    140 N12         6.6060   -1.8030   -1.1820 n         1 MOL     -0.419596
    141 C43         6.5790   -2.3840    0.1510 c3        1 MOL     -0.008527
    142 C44         5.3970   -1.8330    0.9990 c         1 MOL      0.590470
    143 O21         5.0510   -0.6480    0.9060 o         1 MOL     -0.507675
    144 C45         7.9700   -2.3680    0.9310 c3        1 MOL     -0.376931
    145 C46         9.1700   -2.7940    0.0820 c3        1 MOL      0.166305
    146 C47        10.5500   -2.5270    0.7180 c3        1 MOL      0.004425
    147 C48        11.8020   -2.9060   -0.0510 c3        1 MOL      0.035796
    148 N13        12.9980   -2.5890    0.6990 n4        1 MOL     -0.164125
    149 H67         6.3940   -2.3570   -2.0050 hn        1 MOL      0.280449
    150 H68         6.3470   -3.4440   -0.0040 h1        1 MOL      0.104959
    151 H69         7.9790   -2.8000    1.9390 hc        1 MOL      0.129493
    152 H70         8.2470   -1.3340    1.1360 hc        1 MOL      0.129493
    153 H71         9.2230   -2.1980   -0.8280 hc        1 MOL     -0.022724
    154 H72         9.1200   -3.8610   -0.1370 hc        1 MOL     -0.022724
    155 H73        10.5320   -3.1500    1.6150 hc        1 MOL      0.020177
    156 H74        10.5900   -1.4830    1.0270 hc        1 MOL      0.020177
    157 H75        11.8080   -2.4600   -1.0460 hx        1 MOL      0.062166
    158 H76        11.8330   -3.9380   -0.3970 hx        1 MOL      0.062166
    159 H77        13.8070   -2.9460    0.2150 hn        1 MOL      0.193065
    160 H78        13.2150   -1.6830    1.0800 hn        1 MOL      0.193065
    161 H79        12.9640   -3.1560    1.5390 hn        1 MOL      0.193065
    162 N14         4.8050   -2.7950    1.6960 n         1 MOL     -0.457707
    163 C49         3.6180   -2.6680    2.5690 c3        1 MOL      0.056637
    164 C50         2.3560   -2.4960    1.6960 c         1 MOL      0.423381
    165 O22         1.6830   -1.4950    1.9200 o         1 MOL     -0.549050
    166 C51         3.3940   -3.9040    3.4440 c3        1 MOL      0.136309
    167 C52         4.3390   -3.9190    4.6530 c3        1 MOL     -0.394173
    168 C53         3.9310   -4.9930    5.6480 c         1 MOL      0.815092
    169 O23         4.2160   -4.8150    6.8670 o         1 MOL     -0.665871
    170 O24         3.4090   -6.0300    5.3000 o         1 MOL     -0.665871
    171 H80         5.1930   -3.7150    1.5430 hn        1 MOL      0.273531
    172 H81         3.7300   -1.7200    3.1010 h1        1 MOL      0.077689
    173 H82         3.4490   -4.8440    2.8950 hc        1 MOL      0.034990
    174 H83         2.3860   -4.0000    3.8300 hc        1 MOL      0.034990
    175 H84         4.2260   -2.9190    5.0860 hc        1 MOL      0.060076
    176 H85         5.3320   -4.1520    4.2960 hc        1 MOL      0.060076
    177 N15         1.8140   -3.4360    0.9010 n         1 MOL     -0.390119
    178 C54         2.3530   -4.7290    0.3530 c3        1 MOL     -0.063285
    179 H86         2.9520   -5.2240    1.1170 h1        1 MOL      0.058785
    180 H87         1.5240   -5.3760    0.0650 h1        1 MOL      0.058785
    181 H88         2.9740   -4.5240   -0.5190 h1        1 MOL      0.058785
    182 H89         0.8850   -3.1160    0.6650 hn        1 MOL      0.358165
    183 Ca1         0.3420    0.7480    1.2760 Ca        1 MOL      1.871601
    184 O25         2.9250    1.0180    0.6500 oh        1 MOL     -0.946114
    185 H90         3.3490    1.8690    0.5040 ho        1 MOL      0.437373
    186 H91         3.6600    0.4020    0.7230 ho        1 MOL      0.437373
    187 O26         1.9450    1.1100    3.4680 oh        1 MOL     -0.946114
    188 H92         1.6170    1.4400    4.2980 ho        1 MOL      0.437373
    189 H93         2.7880    0.7000    3.6780 ho        1 MOL      0.437373
    190 O27        -1.2650   -0.2930    3.1340 oh        1 MOL     -0.946114
    191 H94        -1.6180    0.4890    3.5750 ho        1 MOL      0.437373
    192 H95        -1.9540   -0.9550    3.2590 ho        1 MOL      0.437373
@<TRIPOS>BOND
     1    1    2 1   
     2    1    4 1   
     3    1    5 1   
     4    1    6 1   
     5    2    3 2   
     6    2    7 1   
     7    7    8 1   
     8    7   15 1   
     9    8    9 1   
    10    8   11 1   
    11    8   16 1   
    12    9   10 2   
    13    9   19 1   
    14   11   12 1   
    15   11   17 1   
    16   11   18 1   
    17   12   13 1   
    18   12   14 1   
    19   19   20 1   
    20   19   28 1   
    21   20   21 1   
    22   20   23 1   
    23   20   29 1   
    24   21   22 2   
    25   21   41 1   
    26   23   24 1   
    27   23   30 1   
    28   23   31 1   
    29   24   25 1   
    30   24   32 1   
    31   24   33 1   
    32   25   26 1   
    33   25   34 1   
    34   25   35 1   
    35   26   27 1   
    36   26   36 1   
    37   26   37 1   
    38   27   38 1   
    39   27   39 1   
    40   27   40 1   
    41   41   42 1   
    42   41   49 1   
    43   42   43 1   
    44   42   45 1   
    45   42   50 1   
    46   43   44 2   
    47   43   53 1   
    48   45   46 1   
    49   45   51 1   
    50   45   52 1   
    51   46   47 1   
    52   46   48 1   
    53   53   54 1   
    54   53   57 1   
    55   54   55 1   
    56   54   58 1   
    57   54   59 1   
    58   55   56 2   
    59   55   60 1   
    60   60   61 1   
    61   60   68 1   
    62   61   62 1   
    63   61   64 1   
    64   61   69 1   
    65   62   63 2   
    66   62   72 1   
    67   64   65 1   
    68   64   70 1   
    69   64   71 1   
    70   65   66 1   
    71   65   67 1   
    72   72   73 1   
    73   72   76 1   
    74   73   74 1   
    75   73   77 1   
    76   73   78 1   
    77   74   75 2   
    78   74   79 1   
    79   79   80 1   
    80   79   86 1   
    81   80   81 1   
    82   80   83 1   
    83   80   87 1   
    84   81   82 2   
    85   81   93 1   
    86   83   84 1   
    87   83   85 1   
    88   83   88 1   
    89   84   90 1   
    90   84   91 1   
    91   84   92 1   
    92   85   89 1   
    93   93   94 1   
    94   93  101 1   
    95   94   95 1   
    96   94   97 1   
    97   94  102 1   
    98   95   96 2   
    99   95  112 1   
   100   97   98 1   
   101   97   99 1   
   102   97  103 1   
   103   98  100 1   
   104   98  104 1   
   105   98  105 1   
   106   99  106 1   
   107   99  107 1   
   108   99  108 1   
   109  100  109 1   
   110  100  110 1   
   111  100  111 1   
   112  112  113 1   
   113  112  119 1   
   114  113  114 1   
   115  113  116 1   
   116  113  120 1   
   117  114  115 2   
   118  114  126 1   
   119  116  117 1   
   120  116  118 1   
   121  116  121 1   
   122  117  123 1   
   123  117  124 1   
   124  117  125 1   
   125  118  122 1   
   126  126  127 1   
   127  126  133 1   
   128  127  128 1   
   129  127  130 1   
   130  127  134 1   
   131  128  129 2   
   132  128  140 1   
   133  130  131 1   
   134  130  132 1   
   135  130  135 1   
   136  131  137 1   
   137  131  138 1   
   138  131  139 1   
   139  132  136 1   
   140  140  141 1   
   141  140  149 1   
   142  141  142 1   
   143  141  144 1   
   144  141  150 1   
   145  142  143 2   
   146  142  162 1   
   147  144  145 1   
   148  144  151 1   
   149  144  152 1   
   150  145  146 1   
   151  145  153 1   
   152  145  154 1   
   153  146  147 1   
   154  146  155 1   
   155  146  156 1   
   156  147  148 1   
   157  147  157 1   
   158  147  158 1   
   159  148  159 1   
   160  148  160 1   
   161  148  161 1   
   162  162  163 1   
   163  162  171 1   
   164  163  164 1   
   165  163  166 1   
   166  163  172 1   
   167  164  165 2   
   168  164  177 1   
   169  166  167 1   
   170  166  173 1   
   171  166  174 1   
   172  167  168 1   
   173  167  175 1   
   174  167  176 1   
   175  168  169 1   
   176  168  170 1   
   177  177  178 1   
   178  177  182 1   
   179  178  179 1   
   180  178  180 1   
   181  178  181 1   
   182  184  185 1   
   183  184  186 1   
   184  187  188 1   
   185  187  189 1   
   186  190  191 1   
   187  190  192 1   
@<TRIPOS>SUBSTRUCTURE
     1 MOL         1 TEMP              0 ****  ****    0 ROOT
