@<TRIPOS>MOLECULE
MOL
  181   177     1     0     0
SMALL
resp


@<TRIPOS>ATOM
      1 C1          0.9580   -5.9310    3.5460 c3        1 MOL     -0.356276
      2 C2          2.3260   -5.8570    2.9490 c         1 MOL      0.707569
      3 O1          2.5300   -6.6430    2.0090 o         1 MOL     -0.575023
      4 H1          0.5820   -6.9510    3.4660 hc        1 MOL      0.083721
      5 H2          1.0030   -5.6430    4.5960 hc        1 MOL      0.083721
      6 H3          0.2910   -5.2550    3.0110 hc        1 MOL      0.083721
      7 N1          3.2310   -4.9730    3.5260 n         1 MOL     -0.643316
      8 C3          4.6150   -4.8490    2.9730 c3        1 MOL      0.131539
      9 C4          4.5180   -4.1850    1.5690 c         1 MOL      0.710027
     10 O2          3.8270   -3.1770    1.4320 o         1 MOL     -0.632568
     11 C5          5.5600   -4.1400    3.9960 c3        1 MOL     -0.139853
     12 C6          7.0020   -3.9380    3.3960 c         1 MOL      0.688607
     13 O3          7.2050   -2.8770    2.7690 o         1 MOL     -0.719301
     14 O4          7.8110   -4.8360    3.5890 o         1 MOL     -0.719301
     15 H4          2.8600   -4.2910    4.1770 hn        1 MOL      0.336581
     16 H5          4.9060   -5.8830    2.8240 h1        1 MOL      0.049963
     17 H6          5.6010   -4.7610    4.8920 hc        1 MOL      0.002265
     18 H7          5.1140   -3.2180    4.3540 hc        1 MOL      0.002265
     19 N2          5.1600   -4.7770    0.5790 n         1 MOL     -0.727053
     20 C7          5.3660   -4.2600   -0.8300 c3        1 MOL      0.506524
     21 C8          4.1330   -4.4560   -1.6910 c         1 MOL      0.352511
     22 O5          3.2610   -5.2900   -1.4190 o         1 MOL     -0.531238
     23 C9          6.6620   -4.8230   -1.4020 c3        1 MOL     -0.274067
     24 H8          5.4430   -5.7480    0.6410 hn        1 MOL      0.324759
     25 H9          5.4550   -3.1910   -0.6300 h1        1 MOL      0.102199
     26 H10         7.2420   -5.3480   -0.6380 hc        1 MOL      0.060308
     27 H11         6.4910   -5.5450   -2.2090 hc        1 MOL      0.060308
     28 H12         7.3140   -4.0470   -1.7970 hc        1 MOL      0.060308
     29 N3          3.9140   -3.8050   -2.7970 n         1 MOL     -0.373092
     30 C10         4.5500   -2.6760   -3.3650 c3        1 MOL      0.074284
     31 C11         4.4210   -1.3620   -2.4510 c         1 MOL     -0.118411
     32 O6          3.5220   -1.2300   -1.5490 o         1 MOL     -0.294626
     33 C12         3.8830   -2.3190   -4.6680 c3        1 MOL     -0.192040
     34 C13         2.3810   -2.4330   -4.6680 c         1 MOL      0.765655
     35 O7          1.8730   -3.0230   -5.6940 o         1 MOL     -0.717879
     36 O8          1.6670   -2.1400   -3.7520 o         1 MOL     -0.717879
     37 H13         2.9680   -3.9150   -3.1350 hn        1 MOL      0.292975
     38 H14         5.5880   -2.9160   -3.5890 h1        1 MOL      0.079931
     39 H15         4.3650   -2.9810   -5.3840 hc        1 MOL      0.039865
     40 H16         4.2000   -1.3700   -5.1000 hc        1 MOL      0.039865
     41 N4          5.2390   -0.3840   -2.7930 n         1 MOL     -0.126355
     42 C14         5.3890    0.9170   -2.1410 c3        1 MOL     -0.444471
     43 C15         6.0330    0.8220   -0.7720 c         1 MOL      0.791341
     44 O9          6.3500   -0.2450   -0.3060 o         1 MOL     -0.524015
     45 H17         5.9650   -0.6800   -3.4220 hn        1 MOL      0.269804
     46 H18         4.3810    1.3170   -2.1010 h1        1 MOL      0.195869
     47 H19         6.1010    1.5030   -2.7260 h1        1 MOL      0.195869
     48 N5          6.1820    1.8830   -0.0030 n         1 MOL     -0.682836
     49 C16         5.8190    3.2240   -0.4400 c3        1 MOL      0.245631
     50 C17         5.4670    4.1320    0.7690 c         1 MOL      0.539200
     51 O10         5.7450    5.3430    0.6820 o         1 MOL     -0.476468
     52 C18         7.1120    3.7540   -1.0780 c3        1 MOL     -0.296719
     53 C19         6.9760    4.9590   -1.9180 c         1 MOL      0.718693
     54 N6          8.0610    5.5730   -2.2260 n         1 MOL     -0.789153
     55 O11         5.8670    5.2670   -2.3420 o         1 MOL     -0.572520
     56 H20         6.5200    1.7540    0.9390 hn        1 MOL      0.330370
     57 H21         5.0200    3.1680   -1.1810 h1        1 MOL      0.027733
     58 H22         7.5590    3.0040   -1.7190 hc        1 MOL      0.058759
     59 H23         7.8230    3.9960   -0.2940 hc        1 MOL      0.058759
     60 H24         8.9400    5.1600   -1.9560 hn        1 MOL      0.360800
     61 H25         8.0040    6.4280   -2.7730 hn        1 MOL      0.360800
     62 N7          4.8930    3.5450    1.8870 n         1 MOL     -0.436675
     63 C20         4.4450    4.4140    3.0380 c3        1 MOL     -0.159083
     64 C21         3.1180    5.0610    2.9710 c         1 MOL      0.590374
     65 O12         2.6640    5.7880    3.8360 o         1 MOL     -0.579585
     66 H26         4.6940    2.5640    2.0260 hn        1 MOL      0.330355
     67 H27         5.1990    5.1960    3.1220 h1        1 MOL      0.109264
     68 H28         4.4550    3.8270    3.9570 h1        1 MOL      0.109264
     69 N8          2.4650    5.0000    1.8220 n         1 MOL     -0.334613
     70 C22         1.1480    5.6210    1.6280 c3        1 MOL      0.019799
     71 C23         0.0910    4.5130    1.4150 c         1 MOL      0.458049
     72 O13         0.4060    3.3700    1.2050 o         1 MOL     -0.477197
     73 C24         1.1300    6.5830    0.4420 c3        1 MOL      0.378678
     74 C25         1.9280    7.8000    0.8000 c3        1 MOL     -0.436949
     75 O14         1.7970    6.1970   -0.7250 oh        1 MOL     -0.571428
     76 H29         2.8430    4.4840    1.0400 hn        1 MOL      0.193753
     77 H30         0.8370    6.1810    2.5080 h1        1 MOL      0.096465
     78 H31         0.1230    6.8390    0.1100 h1        1 MOL     -0.012758
     79 H32         1.3220    5.4100   -1.0310 ho        1 MOL      0.385938
     80 H33         2.9960    7.6720    0.9740 hc        1 MOL      0.108584
     81 H34         1.8980    8.5340    0.0040 hc        1 MOL      0.108584
     82 H35         1.5230    8.2080    1.7280 hc        1 MOL      0.108584
     83 N9         -1.2210    4.8130    1.5120 n         1 MOL     -0.410038
     84 C26        -2.3090    3.7950    1.3010 c3        1 MOL     -0.219321
     85 C27        -2.7120    3.8330   -0.1910 c         1 MOL      0.488906
     86 O15        -2.9760    4.9430   -0.7140 o         1 MOL     -0.595174
     87 C28        -3.5630    4.0980    2.1780 c3        1 MOL      0.232668
     88 C29        -4.7530    3.2270    1.7210 c3        1 MOL      0.043358
     89 C30        -3.1910    3.9350    3.6490 c3        1 MOL     -0.132673
     90 C31        -5.9220    3.4360    2.6880 c3        1 MOL     -0.226217
     91 H36        -1.4950    5.7090    1.8570 hn        1 MOL      0.240911
     92 H37        -1.9610    2.8010    1.5730 h1        1 MOL      0.238121
     93 H38        -3.9570    5.1160    2.0690 hc        1 MOL     -0.022000
     94 H39        -4.3790    2.2120    1.5810 hc        1 MOL     -0.008807
     95 H40        -5.0460    3.5730    0.7280 hc        1 MOL     -0.008807
     96 H41        -3.1840    2.8700    3.8910 hc        1 MOL      0.018499
     97 H42        -2.2320    4.3970    3.8700 hc        1 MOL      0.018499
     98 H43        -3.8110    4.4700    4.3710 hc        1 MOL      0.018499
     99 H44        -5.9410    4.4170    3.1830 hc        1 MOL      0.044489
    100 H45        -6.8590    3.3210    2.1420 hc        1 MOL      0.044489
    101 H46        -5.8080    2.7160    3.5010 hc        1 MOL      0.044489
    102 N10        -2.8870    2.7310   -0.9020 n         1 MOL     -0.096321
    103 C32        -3.5270    2.5330   -2.2010 c3        1 MOL     -0.146531
    104 C33        -4.6960    1.6330   -2.3190 c         1 MOL      0.583847
    105 O16        -5.3640    1.6500   -3.3190 o         1 MOL     -0.539153
    106 C34        -2.4970    2.1410   -3.2710 c3        1 MOL     -0.030427
    107 C35        -1.4550    1.0650   -2.7400 c         1 MOL      0.654259
    108 O17        -0.5670    1.4760   -2.0200 o         1 MOL     -0.712280
    109 O18        -1.4400   -0.1230   -3.1690 o         1 MOL     -0.712280
    110 H47        -2.6990    1.8440   -0.4420 hn        1 MOL      0.163109
    111 H48        -3.8150    3.5000   -2.6020 h1        1 MOL      0.104459
    112 H49        -1.9480    2.9590   -3.7410 hc        1 MOL      0.011943
    113 H50        -2.9760    1.6000   -4.0980 hc        1 MOL      0.011943
    114 N11        -5.0370    0.8970   -1.2650 n         1 MOL     -0.580381
    115 C36        -6.1120   -0.1040   -1.3210 c3        1 MOL      0.244690
    116 C37        -5.8870   -1.2960   -0.2980 c         1 MOL      0.235015
    117 O19        -6.4260   -1.3230    0.8290 o         1 MOL     -0.480940
    118 C38        -7.4490    0.6220   -1.0240 c3        1 MOL     -0.332873
    119 C39        -8.6470    0.0110   -1.6930 ca        1 MOL      0.116959
    120 C40        -9.4650   -0.8350   -0.9880 ca        1 MOL     -0.145914
    121 C41        -8.8450    0.2750   -3.0090 ca        1 MOL     -0.145914
    122 C42       -10.5710   -1.4430   -1.6110 ca        1 MOL     -0.112539
    123 C43       -10.0440   -0.2360   -3.6360 ca        1 MOL     -0.112539
    124 C44       -10.9160   -1.1170   -2.9390 ca        1 MOL     -0.167330
    125 H51        -4.3650    0.6980   -0.5300 hn        1 MOL      0.377965
    126 H52        -6.1730   -0.5380   -2.3270 h1        1 MOL      0.084745
    127 H53        -7.3820    1.6630   -1.3460 hc        1 MOL      0.123208
    128 H54        -7.6540    0.6810    0.0460 hc        1 MOL      0.123208
    129 H55        -9.2600   -0.9200    0.0740 ha        1 MOL      0.119183
    130 H56        -8.1180    0.8630   -3.5450 ha        1 MOL      0.119183
    131 H57       -11.2050   -2.0370   -0.9640 ha        1 MOL      0.097051
    132 H58       -10.2710    0.0160   -4.6580 ha        1 MOL      0.097051
    133 H59       -11.7910   -1.6330   -3.3090 ha        1 MOL      0.113791
    134 N12        -5.0770   -2.3340   -0.5840 n         1 MOL     -0.022486
    135 C45        -4.8270   -3.5530    0.2410 c3        1 MOL     -0.034835
    136 C46        -4.5400   -3.2310    1.6890 c         1 MOL      0.248812
    137 O20        -4.7670   -4.0420    2.6280 o         1 MOL     -0.509200
    138 C47        -3.5940   -4.2750   -0.4220 c3        1 MOL     -0.109889
    139 C48        -3.9610   -4.0180   -1.8540 c3        1 MOL     -0.014961
    140 C49        -4.4370   -2.5580   -1.8460 c3        1 MOL     -0.029430
    141 H60        -5.6750   -4.2420    0.2350 h1        1 MOL      0.093673
    142 H61        -2.6570   -3.8240   -0.0980 hc        1 MOL      0.087156
    143 H62        -3.4780   -5.3580   -0.3290 hc        1 MOL      0.087156
    144 H63        -3.1350   -4.2310   -2.5300 hc        1 MOL      0.017501
    145 H64        -4.8130   -4.6390   -2.1150 hc        1 MOL      0.017501
    146 H65        -3.5650   -1.9050   -1.7930 h1        1 MOL      0.047894
    147 H66        -5.0390   -2.2640   -2.7010 h1        1 MOL      0.047894
    148 N13        -3.9840   -2.0620    1.9440 n         1 MOL     -0.113972
    149 C50        -3.7610   -1.5690    3.3170 c3        1 MOL     -0.160065
    150 C51        -5.0280   -1.3610    4.1190 c         1 MOL      0.545206
    151 O21        -5.0220   -1.7700    5.2290 o         1 MOL     -0.574911
    152 C52        -3.1000   -0.2080    3.2370 c3        1 MOL      0.111694
    153 C53        -1.7000   -0.2450    2.5170 c3        1 MOL     -0.142495
    154 C54        -1.8050   -0.2060    0.9630 c         1 MOL      0.520700
    155 O22        -0.8120   -0.5380    0.2840 o         1 MOL     -0.612434
    156 O23        -2.8720    0.1030    0.4410 o         1 MOL     -0.612434
    157 H67        -3.8660   -1.4070    1.1840 hn        1 MOL      0.279268
    158 H68        -3.1450   -2.3240    3.7930 h1        1 MOL      0.120312
    159 H69        -3.0300    0.1170    4.2780 hc        1 MOL     -0.035761
    160 H70        -3.7190    0.4990    2.6930 hc        1 MOL     -0.035761
    161 H71        -1.0880   -1.0930    2.8240 hc        1 MOL      0.023488
    162 H72        -1.1720    0.6770    2.7420 hc        1 MOL      0.023488
    163 N14        -6.0460   -0.7950    3.5260 n         1 MOL     -0.144383
    164 C55        -7.3880   -0.5950    4.0870 c3        1 MOL     -0.356146
    165 H73        -7.9130   -1.5500    4.1210 h1        1 MOL      0.119651
    166 H74        -7.3040   -0.1910    5.0950 h1        1 MOL      0.119651
    167 H75        -7.9440    0.1010    3.4600 h1        1 MOL      0.119651
    168 H76        -5.9150   -0.5090    2.5680 hn        1 MOL      0.222668
    169 Ca1         0.7400   -0.8990   -1.6920 Ca        1 MOL      1.780817
    170 O24         2.0160    0.8760   -3.3780 oh        1 MOL     -0.879873
    171 H77         2.4020    0.7580   -4.2450 ho        1 MOL      0.422544
    172 H78         1.8130    1.8100   -3.3370 ho        1 MOL      0.422544
    173 O25        -0.9040   -2.9120   -2.1880 oh        1 MOL     -0.879873
    174 H79        -0.7640   -3.0480   -3.1270 ho        1 MOL      0.422544
    175 H80        -0.9000   -3.7940   -1.8130 ho        1 MOL      0.422544
    176 O26         1.5450   -3.0910   -0.1370 oh        1 MOL     -0.879873
    177 H81         2.4740   -3.0150    0.0830 ho        1 MOL      0.422544
    178 H82         1.3490   -4.0200    0.0130 ho        1 MOL      0.422544
    179 O27         1.8980    0.0980    0.6040 oh        1 MOL     -0.879873
    180 H83         2.7520    0.1150    1.0410 ho        1 MOL      0.422544
    181 H84         1.3540   -0.4680    1.1570 ho        1 MOL      0.422544
@<TRIPOS>BOND
     1    1    2 1   
     2    1    4 1   
     3    1    5 1   
     4    1    6 1   
     5    2    3 2   
     6    2    7 1   
     7    7    8 1   
     8    7   15 1   
     9    8    9 1   
    10    8   11 1   
    11    8   16 1   
    12    9   10 2   
    13    9   19 1   
    14   11   12 1   
    15   11   17 1   
    16   11   18 1   
    17   12   13 1   
    18   12   14 1   
    19   19   20 1   
    20   19   24 1   
    21   20   21 1   
    22   20   23 1   
    23   20   25 1   
    24   21   22 2   
    25   21   29 1   
    26   23   26 1   
    27   23   27 1   
    28   23   28 1   
    29   29   30 1   
    30   29   37 1   
    31   30   31 1   
    32   30   33 1   
    33   30   38 1   
    34   31   32 2   
    35   31   41 1   
    36   33   34 1   
    37   33   39 1   
    38   33   40 1   
    39   34   35 1   
    40   34   36 1   
    41   41   42 1   
    42   41   45 1   
    43   42   43 1   
    44   42   46 1   
    45   42   47 1   
    46   43   44 2   
    47   43   48 1   
    48   48   49 1   
    49   48   56 1   
    50   49   50 1   
    51   49   52 1   
    52   49   57 1   
    53   50   51 2   
    54   50   62 1   
    55   52   53 1   
    56   52   58 1   
    57   52   59 1   
    58   53   54 1   
    59   53   55 2   
    60   54   60 1   
    61   54   61 1   
    62   62   63 1   
    63   62   66 1   
    64   63   64 1   
    65   63   67 1   
    66   63   68 1   
    67   64   65 2   
    68   64   69 1   
    69   69   70 1   
    70   69   76 1   
    71   70   71 1   
    72   70   73 1   
    73   70   77 1   
    74   71   72 2   
    75   71   83 1   
    76   73   74 1   
    77   73   75 1   
    78   73   78 1   
    79   74   80 1   
    80   74   81 1   
    81   74   82 1   
    82   75   79 1   
    83   83   84 1   
    84   83   91 1   
    85   84   85 1   
    86   84   87 1   
    87   84   92 1   
    88   85   86 2   
    89   85  102 1   
    90   87   88 1   
    91   87   89 1   
    92   87   93 1   
    93   88   90 1   
    94   88   94 1   
    95   88   95 1   
    96   89   96 1   
    97   89   97 1   
    98   89   98 1   
    99   90   99 1   
   100   90  100 1   
   101   90  101 1   
   102  102  103 1   
   103  102  110 1   
   104  103  104 1   
   105  103  106 1   
   106  103  111 1   
   107  104  105 2   
   108  104  114 1   
   109  106  107 1   
   110  106  112 1   
   111  106  113 1   
   112  107  108 1   
   113  107  109 1   
   114  114  115 1   
   115  114  125 1   
   116  115  116 1   
   117  115  118 1   
   118  115  126 1   
   119  116  117 2   
   120  116  134 1   
   121  118  119 1   
   122  118  127 1   
   123  118  128 1   
   124  119  120 ar  
   125  119  121 ar  
   126  120  122 ar  
   127  120  129 1   
   128  121  123 ar  
   129  121  130 1   
   130  122  124 ar  
   131  122  131 1   
   132  123  124 ar  
   133  123  132 1   
   134  124  133 1   
   135  134  135 1   
   136  134  140 1   
   137  135  136 1   
   138  135  138 1   
   139  135  141 1   
   140  136  137 2   
   141  136  148 1   
   142  138  139 1   
   143  138  142 1   
   144  138  143 1   
   145  139  140 1   
   146  139  144 1   
   147  139  145 1   
   148  140  146 1   
   149  140  147 1   
   150  148  149 1   
   151  148  157 1   
   152  149  150 1   
   153  149  152 1   
   154  149  158 1   
   155  150  151 2   
   156  150  163 1   
   157  152  153 1   
   158  152  159 1   
   159  152  160 1   
   160  153  154 1   
   161  153  161 1   
   162  153  162 1   
   163  154  155 1   
   164  154  156 1   
   165  163  164 1   
   166  163  168 1   
   167  164  165 1   
   168  164  166 1   
   169  164  167 1   
   170  170  171 1   
   171  170  172 1   
   172  173  174 1   
   173  173  175 1   
   174  176  177 1   
   175  176  178 1   
   176  179  180 1   
   177  179  181 1   
@<TRIPOS>SUBSTRUCTURE
     1 MOL         1 TEMP              0 ****  ****    0 ROOT
