@<TRIPOS>MOLECULE
MOL
  189   185     1     0     0
SMALL
resp


@<TRIPOS>ATOM
      1 C1         12.2970    4.5420   -3.6290 c3        1 MOL     -0.344060
      2 C2         12.1290    3.3490   -2.6310 c         1 MOL      0.612448
      3 O1         12.5470    2.2210   -2.9680 o         1 MOL     -0.587962
      4 H1         11.3240    4.9970   -3.8180 hc        1 MOL      0.099101
      5 H2         12.9670    5.2860   -3.1990 hc        1 MOL      0.099101
      6 H3         12.7140    4.1750   -4.5670 hc        1 MOL      0.099101
      7 N1         11.5030    3.5270   -1.4510 n         1 MOL     -0.205767
      8 C3         11.3230    2.4440   -0.4810 c3        1 MOL     -0.346047
      9 C4          9.9220    1.7740   -0.6060 c         1 MOL      0.768001
     10 O2          8.9860    2.5560   -0.6810 o         1 MOL     -0.689402
     11 C5         11.6660    2.9170    0.9370 c3        1 MOL     -0.147485
     12 C6         11.1580    4.3550    1.2060 c         1 MOL      0.805051
     13 O3         11.8610    5.2970    1.5580 o         1 MOL     -0.708578
     14 O4          9.9510    4.5920    1.0680 o         1 MOL     -0.708578
     15 H4         11.0060    4.3710   -1.2160 hn        1 MOL      0.137696
     16 H5         12.0400    1.6210   -0.6290 h1        1 MOL      0.173774
     17 H6         12.7460    2.8690    1.0550 hc        1 MOL      0.068474
     18 H7         11.4410    2.2090    1.7430 hc        1 MOL      0.068474
     19 N2          9.7770    0.4130   -0.7090 n         1 MOL     -0.568000
     20 C7          8.4700   -0.1170   -1.0680 c3        1 MOL      0.092888
     21 C8          7.3700    0.0410    0.0050 c         1 MOL      0.545857
     22 O5          7.6770   -0.0280    1.2160 o         1 MOL     -0.598080
     23 C9          8.8380   -1.5990   -1.4040 c3        1 MOL     -0.061272
     24 C10         7.6570   -2.4830   -1.9410 c3        1 MOL     -0.317584
     25 C11         8.1600   -3.7990   -2.4180 c3        1 MOL      0.115110
     26 C12         6.8750   -4.6270   -2.7880 c3        1 MOL      0.117696
     27 N3          7.1640   -5.9180   -3.4140 n4        1 MOL     -0.265643
     28 H8         10.5400   -0.2230   -0.5160 hn        1 MOL      0.301441
     29 H9          8.1660    0.5140   -1.8990 h1        1 MOL      0.078602
     30 H10         9.2280   -2.0810   -0.5060 hc        1 MOL      0.081303
     31 H11         9.6320   -1.6260   -2.1390 hc        1 MOL      0.081303
     32 H12         7.1350   -1.9260   -2.7090 hc        1 MOL      0.144188
     33 H13         7.1290   -2.7080   -1.0120 hc        1 MOL      0.144188
     34 H14         8.7900   -4.3870   -1.7510 hc        1 MOL     -0.003565
     35 H15         8.7370   -3.6410   -3.3250 hc        1 MOL     -0.003565
     36 H16         6.2870   -3.9870   -3.4600 hx        1 MOL      0.021524
     37 H17         6.2350   -4.6700   -1.9080 hx        1 MOL      0.021524
     38 H18         6.3590   -6.5160   -3.5430 hn        1 MOL      0.234298
     39 H19         7.6160   -5.8370   -4.3200 hn        1 MOL      0.234298
     40 H20         7.7800   -6.4240   -2.7900 hn        1 MOL      0.234298
     41 N4          6.1040   -0.0160   -0.3830 n         1 MOL     -0.526124
     42 C13         4.8900    0.0010    0.5110 c3        1 MOL      0.393931
     43 C14         3.7990   -0.9600   -0.0960 c         1 MOL      0.201406
     44 O6          3.7520   -1.1460   -1.3720 o         1 MOL     -0.540549
     45 C15         4.2350    1.3970    0.3920 c3        1 MOL      0.012727
     46 C16         5.1190    2.5720    0.5860 c         1 MOL      0.748684
     47 O7          5.6010    3.2180   -0.3580 o         1 MOL     -0.823382
     48 O8          5.4320    2.8990    1.7700 o         1 MOL     -0.823382
     49 H21         6.0010   -0.1830   -1.3700 hn        1 MOL      0.252861
     50 H22         5.0850   -0.2880    1.5410 h1        1 MOL      0.030666
     51 H23         3.6190    1.4060    1.2950 hc        1 MOL      0.006764
     52 H24         3.5670    1.4840   -0.4710 hc        1 MOL      0.006764
     53 N5          2.8510   -1.5240    0.7200 n         1 MOL     -0.166341
     54 C17         2.7580   -1.3840    2.1780 c3        1 MOL     -0.439156
     55 C18         2.4400   -2.7830    2.7160 c         1 MOL      0.651266
     56 O9          2.7940   -3.8200    2.2430 o         1 MOL     -0.550087
     57 H25         2.0950   -1.9640    0.2250 hn        1 MOL      0.262185
     58 H26         1.9930   -0.6360    2.4200 h1        1 MOL      0.178692
     59 H27         3.7260   -1.0640    2.5680 h1        1 MOL      0.178692
     60 N6          1.7840   -2.7010    3.8410 n         1 MOL     -0.368561
     61 C19         1.2880   -3.8670    4.5870 c3        1 MOL     -0.059469
     62 C20         0.2540   -4.6900    3.7190 c         1 MOL      0.515720
     63 O10        -0.9050   -4.3890    3.7700 o         1 MOL     -0.471187
     64 C21         0.7830   -3.3770    5.9490 c3        1 MOL     -0.185927
     65 C22         0.1550   -4.4520    6.8060 c         1 MOL      0.747437
     66 O11        -0.8180   -4.1280    7.5100 o         1 MOL     -0.658012
     67 O12         0.6790   -5.5840    6.7970 o         1 MOL     -0.658012
     68 H28         1.5700   -1.7770    4.1980 hn        1 MOL      0.279246
     69 H29         2.0650   -4.5680    4.8840 h1        1 MOL      0.050249
     70 H30         0.0660   -2.5750    5.8500 hc        1 MOL      0.051252
     71 H31         1.5650   -2.8550    6.5100 hc        1 MOL      0.051252
     72 N7          0.7450   -5.6810    2.9830 n         1 MOL     -0.399735
     73 C23        -0.0210   -6.3460    1.9610 c3        1 MOL     -0.108434
     74 C24        -0.3280   -5.6170    0.6470 c         1 MOL      0.525172
     75 O13        -1.2080   -6.0280    0.0010 o         1 MOL     -0.559437
     76 H32         1.7600   -5.7370    3.0110 hn        1 MOL      0.285332
     77 H33        -0.9210   -6.7260    2.4380 h1        1 MOL      0.107342
     78 H34         0.5570   -7.2250    1.6720 h1        1 MOL      0.107342
     79 N8          0.4210   -4.5740    0.3250 n         1 MOL     -0.260920
     80 C25         0.4340   -4.0080   -1.0240 c3        1 MOL     -0.060332
     81 C26        -0.2470   -2.6130   -0.9860 c         1 MOL      0.465356
     82 O14        -0.0370   -1.9640    0.0650 o         1 MOL     -0.519182
     83 C27         1.8420   -3.9500   -1.5890 c3        1 MOL      0.531352
     84 C28         2.4980   -5.2640   -1.3720 c3        1 MOL     -0.412299
     85 O15         1.7830   -3.8660   -2.9600 oh        1 MOL     -0.636701
     86 H35         1.2560   -4.3310    0.8470 hn        1 MOL      0.169769
     87 H36        -0.1070   -4.7300   -1.6330 h1        1 MOL      0.076182
     88 H37         2.4130   -3.1450   -1.1260 h1        1 MOL     -0.070995
     89 H38         2.6420   -3.4920   -3.1590 ho        1 MOL      0.386158
     90 H39         2.8280   -5.3390   -0.3330 hc        1 MOL      0.090029
     91 H40         1.9570   -6.1360   -1.7430 hc        1 MOL      0.090029
     92 H41         3.4140   -5.2190   -1.9570 hc        1 MOL      0.090029
     93 N9         -0.9970   -2.1940   -2.0070 n         1 MOL     -0.343141
     94 C29        -1.6040   -0.7970   -2.0670 c3        1 MOL     -0.010134
     95 C30        -3.1400   -0.8010   -1.7860 c         1 MOL      0.727793
     96 O16        -3.5770    0.1080   -1.1780 o         1 MOL     -0.541697
     97 C31        -1.1880   -0.0720   -3.3030 c3        1 MOL      0.097711
     98 C32         0.3010   -0.1540   -3.6900 c3        1 MOL     -0.109609
     99 C33        -1.6900    1.3540   -3.1960 c3        1 MOL     -0.264065
    100 C34         1.3670    0.5730   -2.9110 c3        1 MOL     -0.060780
    101 H42        -1.0970   -2.7680   -2.8280 hn        1 MOL      0.259430
    102 H43        -1.1910   -0.1710   -1.2710 h1        1 MOL      0.084666
    103 H44        -1.7220   -0.5540   -4.1200 hc        1 MOL     -0.011406
    104 H45         0.3840    0.2430   -4.7020 hc        1 MOL      0.019048
    105 H46         0.6110   -1.2040   -3.7770 hc        1 MOL      0.019048
    106 H47        -1.1900    2.0540   -3.8770 hc        1 MOL      0.077875
    107 H48        -2.7570    1.3150   -3.4130 hc        1 MOL      0.077875
    108 H49        -1.3360    1.7160   -2.2330 hc        1 MOL      0.077875
    109 H50         1.5000    0.1010   -1.9300 hc        1 MOL      0.037171
    110 H51         2.3090    0.4270   -3.4260 hc        1 MOL      0.037171
    111 H52         1.2980    1.6570   -2.8860 hc        1 MOL      0.037171
    112 N10        -3.8100   -1.9590   -1.9470 n         1 MOL     -0.643908
    113 C35        -5.1440   -2.1750   -1.4140 c3        1 MOL      0.071760
    114 C36        -6.2360   -1.8540   -2.4530 c         1 MOL      0.593763
    115 O17        -5.9870   -1.8670   -3.6490 o         1 MOL     -0.534357
    116 C37        -5.2070   -3.5650   -0.8240 c3        1 MOL      0.222945
    117 C38        -4.2370   -3.8090    0.3250 c3        1 MOL     -0.125150
    118 O18        -6.4830   -3.7730   -0.1940 oh        1 MOL     -0.658264
    119 H53        -3.3940   -2.7040   -2.4920 hn        1 MOL      0.292694
    120 H54        -5.2680   -1.4140   -0.6480 h1        1 MOL      0.124052
    121 H55        -5.0110   -4.2940   -1.6020 h1        1 MOL      0.032742
    122 H56        -6.5450   -4.6780    0.1310 ho        1 MOL      0.419480
    123 H57        -3.2520   -3.8650   -0.1350 hc        1 MOL      0.059649
    124 H58        -4.3290   -3.0070    1.0600 hc        1 MOL      0.059649
    125 H59        -4.4050   -4.7440    0.8540 hc        1 MOL      0.059649
    126 N11        -7.4480   -1.5080   -2.0200 n         1 MOL     -0.580498
    127 C39        -8.5560   -1.1480   -2.8190 c3        1 MOL      0.108765
    128 C40        -8.9440    0.3020   -2.5810 c         1 MOL      0.632001
    129 O19        -9.2190    0.9490   -3.5510 o         1 MOL     -0.580602
    130 C41        -9.7140   -2.0550   -2.5320 c3        1 MOL      0.157220
    131 C42       -10.4790   -1.7770   -1.1880 c3        1 MOL     -0.000078
    132 O20        -9.3520   -3.4490   -2.6220 oh        1 MOL     -0.614178
    133 H60        -7.4760   -1.8910   -1.0850 hn        1 MOL      0.302289
    134 H61        -8.2760   -1.1340   -3.8730 h1        1 MOL      0.074270
    135 H62       -10.4330   -1.8700   -3.3300 h1        1 MOL     -0.008117
    136 H63        -9.2160   -3.5900   -3.5630 ho        1 MOL      0.417242
    137 H64       -11.4490   -2.2840   -1.1660 hc        1 MOL      0.022983
    138 H65       -10.0470   -2.1110   -0.2440 hc        1 MOL      0.022983
    139 H66       -10.8140   -0.7400   -1.1440 hc        1 MOL      0.022983
    140 N12        -8.9170    0.8080   -1.3390 n         1 MOL     -0.316220
    141 C43        -9.2910    2.2110   -0.9860 c3        1 MOL     -0.049184
    142 C44        -8.3900    2.6660    0.1620 c         1 MOL      0.471914
    143 O21        -8.0180    1.8460    1.0050 o         1 MOL     -0.485303
    144 C45       -10.8010    2.2710   -0.6500 c3        1 MOL     -0.219804
    145 C46       -11.1980    1.5740    0.6970 c3        1 MOL     -0.082469
    146 C47       -12.6740    1.3660    0.8900 c3        1 MOL      0.115410
    147 C48       -13.0260   -0.0100    0.2940 c3        1 MOL      0.072202
    148 N13       -14.2690   -0.5200    0.8330 n4        1 MOL     -0.317884
    149 H67        -8.4240    0.2610   -0.6530 hn        1 MOL      0.178281
    150 H68        -9.0580    2.8510   -1.8350 h1        1 MOL      0.092382
    151 H69       -11.3800    1.8890   -1.5030 hc        1 MOL      0.083985
    152 H70       -10.9680    3.3460   -0.5520 hc        1 MOL      0.083985
    153 H71       -11.0170    2.2720    1.5200 hc        1 MOL      0.060582
    154 H72       -10.6140    0.6570    0.8240 hc        1 MOL      0.060582
    155 H73       -13.1670    2.2050    0.4140 hc        1 MOL      0.010639
    156 H74       -12.8570    1.3340    1.9680 hc        1 MOL      0.010639
    157 H75       -12.2490   -0.7650    0.4260 hx        1 MOL      0.041696
    158 H76       -13.1680    0.2120   -0.7590 hx        1 MOL      0.041696
    159 H77       -14.0610   -0.9680    1.7130 hn        1 MOL      0.268706
    160 H78       -15.0130    0.1270    1.0180 hn        1 MOL      0.268706
    161 H79       -14.6820   -1.2370    0.2510 hn        1 MOL      0.268706
    162 N14        -8.1480    3.9710    0.3100 n         1 MOL     -0.410230
    163 C49        -7.1910    4.6210    1.3120 c3        1 MOL      0.198721
    164 C50        -5.7050    4.3000    0.9660 c         1 MOL      0.393053
    165 O22        -5.0700    3.5740    1.7350 o         1 MOL     -0.503591
    166 C51        -7.4610    6.1120    1.4510 c3        1 MOL      0.104169
    167 C52        -8.9280    6.3600    1.9220 c3        1 MOL     -0.322754
    168 C53        -9.1340    7.9040    2.0670 c         1 MOL      0.661695
    169 O23       -10.0430    8.5230    1.4710 o         1 MOL     -0.623425
    170 O24        -8.2460    8.5830    2.6420 o         1 MOL     -0.623425
    171 H80        -8.5320    4.5410   -0.4360 hn        1 MOL      0.301120
    172 H81        -7.2430    4.1820    2.3190 h1        1 MOL      0.042864
    173 H82        -7.4420    6.5670    0.4650 hc        1 MOL      0.017603
    174 H83        -6.6960    6.6520    2.0070 hc        1 MOL      0.017603
    175 H84        -9.0120    5.8870    2.8950 hc        1 MOL      0.048343
    176 H85        -9.6040    5.8360    1.2360 hc        1 MOL      0.048343
    177 N15        -5.1260    4.7390   -0.1780 n         1 MOL     -0.397176
    178 C54        -5.6660    5.5730   -1.2680 c3        1 MOL     -0.062719
    179 H86        -6.7470    5.6570   -1.1590 h1        1 MOL      0.057119
    180 H87        -5.2180    6.5670   -1.2220 h1        1 MOL      0.057119
    181 H88        -5.4330    5.1140   -2.2270 h1        1 MOL      0.057119
    182 H89        -4.2100    4.3520   -0.3330 hn        1 MOL      0.296032
    183 Ca1         7.5550    4.5470    0.4300 Ca        1 MOL      1.759998
    184 O25         8.0820    2.3680    2.2870 oh        1 MOL     -0.890412
    185 H90         7.2040    2.3100    2.6700 ho        1 MOL      0.442553
    186 H91         8.2960    1.4660    2.0510 ho        1 MOL      0.442553
    187 O26         7.5210    5.2440    3.2700 oh        1 MOL     -0.890412
    188 H92         7.6940    4.8380    4.1180 ho        1 MOL      0.442553
    189 H93         6.5870    5.4270    3.2740 ho        1 MOL      0.442553
@<TRIPOS>BOND
     1    1    2 1   
     2    1    4 1   
     3    1    5 1   
     4    1    6 1   
     5    2    3 2   
     6    2    7 1   
     7    7    8 1   
     8    7   15 1   
     9    8    9 1   
    10    8   11 1   
    11    8   16 1   
    12    9   10 2   
    13    9   19 1   
    14   11   12 1   
    15   11   17 1   
    16   11   18 1   
    17   12   13 1   
    18   12   14 1   
    19   19   20 1   
    20   19   28 1   
    21   20   21 1   
    22   20   23 1   
    23   20   29 1   
    24   21   22 2   
    25   21   41 1   
    26   23   24 1   
    27   23   30 1   
    28   23   31 1   
    29   24   25 1   
    30   24   32 1   
    31   24   33 1   
    32   25   26 1   
    33   25   34 1   
    34   25   35 1   
    35   26   27 1   
    36   26   36 1   
    37   26   37 1   
    38   27   38 1   
    39   27   39 1   
    40   27   40 1   
    41   41   42 1   
    42   41   49 1   
    43   42   43 1   
    44   42   45 1   
    45   42   50 1   
    46   43   44 2   
    47   43   53 1   
    48   45   46 1   
    49   45   51 1   
    50   45   52 1   
    51   46   47 1   
    52   46   48 1   
    53   53   54 1   
    54   53   57 1   
    55   54   55 1   
    56   54   58 1   
    57   54   59 1   
    58   55   56 2   
    59   55   60 1   
    60   60   61 1   
    61   60   68 1   
    62   61   62 1   
    63   61   64 1   
    64   61   69 1   
    65   62   63 2   
    66   62   72 1   
    67   64   65 1   
    68   64   70 1   
    69   64   71 1   
    70   65   66 1   
    71   65   67 1   
    72   72   73 1   
    73   72   76 1   
    74   73   74 1   
    75   73   77 1   
    76   73   78 1   
    77   74   75 2   
    78   74   79 1   
    79   79   80 1   
    80   79   86 1   
    81   80   81 1   
    82   80   83 1   
    83   80   87 1   
    84   81   82 2   
    85   81   93 1   
    86   83   84 1   
    87   83   85 1   
    88   83   88 1   
    89   84   90 1   
    90   84   91 1   
    91   84   92 1   
    92   85   89 1   
    93   93   94 1   
    94   93  101 1   
    95   94   95 1   
    96   94   97 1   
    97   94  102 1   
    98   95   96 2   
    99   95  112 1   
   100   97   98 1   
   101   97   99 1   
   102   97  103 1   
   103   98  100 1   
   104   98  104 1   
   105   98  105 1   
   106   99  106 1   
   107   99  107 1   
   108   99  108 1   
   109  100  109 1   
   110  100  110 1   
   111  100  111 1   
   112  112  113 1   
   113  112  119 1   
   114  113  114 1   
   115  113  116 1   
   116  113  120 1   
   117  114  115 2   
   118  114  126 1   
   119  116  117 1   
   120  116  118 1   
   121  116  121 1   
   122  117  123 1   
   123  117  124 1   
   124  117  125 1   
   125  118  122 1   
   126  126  127 1   
   127  126  133 1   
   128  127  128 1   
   129  127  130 1   
   130  127  134 1   
   131  128  129 2   
   132  128  140 1   
   133  130  131 1   
   134  130  132 1   
   135  130  135 1   
   136  131  137 1   
   137  131  138 1   
   138  131  139 1   
   139  132  136 1   
   140  140  141 1   
   141  140  149 1   
   142  141  142 1   
   143  141  144 1   
   144  141  150 1   
   145  142  143 2   
   146  142  162 1   
   147  144  145 1   
   148  144  151 1   
   149  144  152 1   
   150  145  146 1   
   151  145  153 1   
   152  145  154 1   
   153  146  147 1   
   154  146  155 1   
   155  146  156 1   
   156  147  148 1   
   157  147  157 1   
   158  147  158 1   
   159  148  159 1   
   160  148  160 1   
   161  148  161 1   
   162  162  163 1   
   163  162  171 1   
   164  163  164 1   
   165  163  166 1   
   166  163  172 1   
   167  164  165 2   
   168  164  177 1   
   169  166  167 1   
   170  166  173 1   
   171  166  174 1   
   172  167  168 1   
   173  167  175 1   
   174  167  176 1   
   175  168  169 1   
   176  168  170 1   
   177  177  178 1   
   178  177  182 1   
   179  178  179 1   
   180  178  180 1   
   181  178  181 1   
   182  184  185 1   
   183  184  186 1   
   184  187  188 1   
   185  187  189 1   
@<TRIPOS>SUBSTRUCTURE
     1 MOL         1 TEMP              0 ****  ****    0 ROOT
