@<TRIPOS>MOLECULE
MOL
  179   176     1     0     0
SMALL
resp


@<TRIPOS>ATOM
      1 C1          2.0650   -5.4680    5.7090 c3        1 MOL     -0.420030
      2 C2          1.9800   -4.9730    4.2580 c         1 MOL      0.791669
      3 O1          1.1400   -5.3950    3.4850 o         1 MOL     -0.614838
      4 H1          3.0000   -6.0090    5.8540 hc        1 MOL      0.116507
      5 H2          2.0330   -4.6140    6.3870 hc        1 MOL      0.116507
      6 H3          1.2250   -6.1300    5.9180 hc        1 MOL      0.116507
      7 N1          2.8640   -3.9870    3.8850 n         1 MOL     -0.653765
      8 C3          2.7910   -3.2280    2.6660 c3        1 MOL     -0.113379
      9 C4          3.1560   -4.1800    1.5210 c         1 MOL      0.614488
     10 O2          4.2290   -4.7180    1.4040 o         1 MOL     -0.564427
     11 C5          3.8030   -2.0710    2.6810 c3        1 MOL     -0.038333
     12 C6          3.7210   -1.1730    1.4110 c         1 MOL      0.664184
     13 O3          3.9580    0.0560    1.4580 o         1 MOL     -0.738706
     14 O4          3.3690   -1.6750    0.3170 o         1 MOL     -0.738706
     15 H4          3.6070   -3.6530    4.4810 hn        1 MOL      0.333022
     16 H5          1.8380   -2.7220    2.5310 h1        1 MOL      0.243357
     17 H6          4.8470   -2.3640    2.7420 hc        1 MOL      0.047968
     18 H7          3.7130   -1.5050    3.6130 hc        1 MOL      0.047968
     19 N2          2.2230   -4.4390    0.6230 n         1 MOL     -0.170595
     20 C7          2.3690   -5.3280   -0.5430 c3        1 MOL     -0.156212
     21 C8          3.4770   -5.0030   -1.5490 c         1 MOL      0.596917
     22 O5          3.8820   -5.9180   -2.2110 o         1 MOL     -0.578820
     23 C9          0.9310   -5.3180   -1.2030 c3        1 MOL     -0.047850
     24 C10         0.5070   -4.0260   -1.9500 c3        1 MOL      0.076872
     25 C11        -0.8120   -4.2440   -2.6100 c3        1 MOL      0.083294
     26 C12        -1.2250   -2.8610   -3.1280 c3        1 MOL     -0.096256
     27 N3         -2.6310   -2.8880   -3.5330 n4        1 MOL     -0.076917
     28 H8          1.3270   -3.9730    0.7290 hn        1 MOL      0.148544
     29 H9          2.5100   -6.3550   -0.2350 h1        1 MOL      0.130150
     30 H10         0.1860   -5.4400   -0.4110 hc        1 MOL      0.022061
     31 H11         0.7500   -6.2250   -1.7920 hc        1 MOL      0.022061
     32 H12         1.2470   -3.7520   -2.6980 hc        1 MOL      0.009648
     33 H13         0.4270   -3.2600   -1.1760 hc        1 MOL      0.009648
     34 H14        -1.5270   -4.5500   -1.8490 hc        1 MOL      0.003942
     35 H15        -0.7040   -4.9990   -3.3810 hc        1 MOL      0.003942
     36 H16        -0.6040   -2.7750   -4.0150 hx        1 MOL      0.082691
     37 H17        -1.0600   -1.9830   -2.5140 hx        1 MOL      0.082691
     38 H18        -3.0200   -3.8070   -3.7010 hn        1 MOL      0.212580
     39 H19        -3.2790   -2.3490   -2.9780 hn        1 MOL      0.212580
     40 H20        -2.8510   -2.4300   -4.4050 hn        1 MOL      0.212580
     41 N4          4.0960   -3.8290   -1.4990 n         1 MOL     -0.224762
     42 C13         5.1630   -3.3850   -2.4110 c3        1 MOL      0.042231
     43 C14         6.3810   -2.7160   -1.7060 c         1 MOL      0.377878
     44 O6          7.4800   -2.5500   -2.2940 o         1 MOL     -0.538239
     45 C15         4.6000   -2.4860   -3.5180 c3        1 MOL     -0.253713
     46 C16         3.7150   -1.3520   -2.8270 c         1 MOL      0.691280
     47 O7          2.4740   -1.4450   -2.7380 o         1 MOL     -0.716535
     48 O8          4.3380   -0.3900   -2.3910 o         1 MOL     -0.716535
     49 H21         3.6410   -3.1520   -0.9060 hn        1 MOL      0.064075
     50 H22         5.6990   -4.1950   -2.9130 h1        1 MOL      0.112333
     51 H23         3.9340   -3.0950   -4.1280 hc        1 MOL      0.080660
     52 H24         5.3550   -2.0580   -4.1720 hc        1 MOL      0.080660
     53 N5          6.1960   -2.1670   -0.4610 n         1 MOL     -0.043087
     54 C17         7.2320   -1.5930    0.3810 c3        1 MOL     -0.238236
     55 C18         7.4660   -0.0540    0.2230 c         1 MOL      0.526885
     56 O9          8.3800    0.4510    0.8310 o         1 MOL     -0.535786
     57 H25         5.2860   -2.2560   -0.0320 hn        1 MOL      0.053237
     58 H26         8.1770   -2.0200    0.0320 h1        1 MOL      0.128257
     59 H27         7.1040   -1.9100    1.4170 h1        1 MOL      0.128257
     60 N6          6.7500    0.6390   -0.6700 n         1 MOL     -0.161565
     61 C19         6.7980    2.0760   -0.9420 c3        1 MOL      0.054719
     62 C20         5.4080    2.7470   -1.0370 c         1 MOL      0.550620
     63 O10         4.4020    2.0190   -0.8320 o         1 MOL     -0.522341
     64 C21         7.6340    2.4040   -2.2270 c3        1 MOL     -0.378365
     65 C22         9.0540    1.7350   -2.1660 c         1 MOL      0.729814
     66 N7          9.2610    0.6840   -2.9810 n         1 MOL     -0.870066
     67 O11         9.9840    2.1830   -1.4630 o         1 MOL     -0.547409
     68 H28         6.0730    0.0800   -1.1700 hn        1 MOL      0.184198
     69 H29         7.2650    2.5840   -0.1040 h1        1 MOL      0.070926
     70 H30         7.8050    3.4670   -2.3780 hc        1 MOL      0.090592
     71 H31         7.1650    2.0310   -3.1450 hc        1 MOL      0.090592
     72 H32         8.5190    0.2970   -3.5380 hn        1 MOL      0.397864
     73 H33        10.1310    0.1740   -2.8930 hn        1 MOL      0.397864
     74 N8          5.2710    4.0540   -1.3320 n         1 MOL     -0.498912
     75 C23         4.0460    4.9110   -1.2640 c3        1 MOL      0.032115
     76 C24         3.2510    4.8670    0.0730 c         1 MOL      0.516262
     77 O12         3.8490    4.6300    1.1740 o         1 MOL     -0.464196
     78 H34         6.1590    4.5400   -1.3530 hn        1 MOL      0.337504
     79 H35         3.4170    4.4730   -2.0340 h1        1 MOL      0.056899
     80 H36         4.2470    5.9510   -1.4860 h1        1 MOL      0.056899
     81 N9          1.8660    5.0510    0.0380 n         1 MOL     -0.541747
     82 C25         0.9450    4.8390    1.2300 c3        1 MOL      0.071185
     83 C26         0.9510    3.2870    1.5500 c         1 MOL      0.627160
     84 O13         1.3800    2.5490    0.6430 o         1 MOL     -0.514721
     85 C27        -0.4750    5.4130    0.9450 c3        1 MOL     -0.101693
     86 C28        -0.5240    6.8440    0.4680 ca        1 MOL      0.110020
     87 C29        -0.2900    7.8980    1.3880 ca        1 MOL     -0.188280
     88 C30        -1.0230    7.2120   -0.7990 ca        1 MOL     -0.188280
     89 C31        -0.6710    9.2450    1.1250 ca        1 MOL     -0.239873
     90 C32        -1.3190    8.5410   -1.0940 ca        1 MOL     -0.239873
     91 C33        -1.1720    9.5730   -0.1600 ca        1 MOL      0.329595
     92 O14        -1.5420   10.8400   -0.4800 oh        1 MOL     -0.457714
     93 H37         1.4050    5.3800   -0.7980 hn        1 MOL      0.259571
     94 H38         1.3890    5.3240    2.1070 h1        1 MOL      0.071509
     95 H39        -1.0170    5.3010    1.8850 hc        1 MOL      0.041547
     96 H40        -0.9040    4.7100    0.2190 hc        1 MOL      0.041547
     97 H41         0.1030    7.6370    2.3610 ha        1 MOL      0.139947
     98 H42        -1.2140    6.5050   -1.5970 ha        1 MOL      0.139947
     99 H43        -0.4470   10.0520    1.8140 ha        1 MOL      0.154739
    100 H44        -1.6340    8.7390   -2.1110 ha        1 MOL      0.154739
    101 H45        -1.1850   11.3900    0.2280 ho        1 MOL      0.366544
    102 N10         0.3920    2.7820    2.6710 n         1 MOL     -0.694206
    103 C34         0.2100    1.3840    2.9950 c3        1 MOL      0.197251
    104 C35        -0.0430    0.2250    1.9860 c         1 MOL      0.429856
    105 O15         0.8520   -0.2680    1.3290 o         1 MOL     -0.583685
    106 C36         1.3860    1.0040    3.9670 c3        1 MOL      0.427108
    107 C37         1.1050   -0.3260    4.7190 c3        1 MOL     -0.279585
    108 C38         1.7300    2.0660    5.0570 c3        1 MOL     -0.505310
    109 C39        -0.2020   -0.4170    5.5300 c3        1 MOL     -0.179888
    110 H46         0.1780    3.4890    3.3670 hn        1 MOL      0.348042
    111 H47        -0.6290    1.3460    3.6750 h1        1 MOL     -0.001695
    112 H48         2.2630    0.8360    3.3400 hc        1 MOL     -0.031426
    113 H49         1.9530   -0.4470    5.3970 hc        1 MOL      0.079823
    114 H50         1.1160   -1.1820    4.0460 hc        1 MOL      0.079823
    115 H51         2.4070    1.4840    5.6890 hc        1 MOL      0.134368
    116 H52         2.2120    2.8990    4.5540 hc        1 MOL      0.134368
    117 H53         0.8010    2.2330    5.6020 hc        1 MOL      0.134368
    118 H54        -0.2920    0.3260    6.3220 hc        1 MOL      0.054253
    119 H55        -1.0990   -0.3670    4.9050 hc        1 MOL      0.054253
    120 H56        -0.2790   -1.3160    6.1430 hc        1 MOL      0.054253
    121 N11        -1.2810   -0.3070    1.9190 n         1 MOL     -0.534572
    122 C40        -1.6240   -1.5870    1.2840 c3        1 MOL      0.153143
    123 C41        -3.0720   -1.7110    0.7740 c         1 MOL      0.426262
    124 O16        -3.5370   -2.8510    0.5590 o         1 MOL     -0.494194
    125 C42        -1.2470   -2.7090    2.3370 c3        1 MOL      0.071445
    126 O17        -0.5730   -3.6950    1.6550 oh        1 MOL     -0.586690
    127 H57        -1.9730    0.2100    2.4470 hn        1 MOL      0.327332
    128 H58        -1.0060   -1.7270    0.3960 h1        1 MOL      0.125790
    129 H59        -2.1590   -3.1030    2.7790 h1        1 MOL      0.052047
    130 H60        -0.6150   -2.3090    3.1240 h1        1 MOL      0.052047
    131 H61        -0.6190   -4.4600    2.2330 ho        1 MOL      0.427981
    132 N12        -3.8400   -0.6190    0.8200 n         1 MOL     -0.442740
    133 C43        -5.1230   -0.6290    0.0470 c3        1 MOL      0.163208
    134 C44        -4.8120   -0.7950   -1.4310 c         1 MOL      0.581810
    135 O18        -3.7010   -0.5090   -1.8290 o         1 MOL     -0.606865
    136 C45        -5.8650    0.7120    0.3240 c3        1 MOL      0.011817
    137 H62        -3.4420    0.2050    1.2360 hn        1 MOL      0.246312
    138 H63        -5.7780   -1.4790    0.2820 h1        1 MOL      0.061513
    139 H64        -6.1390    0.7710    1.3810 hc        1 MOL      0.007556
    140 H65        -5.2330    1.5800    0.1320 hc        1 MOL      0.007556
    141 H66        -6.6780    0.6690   -0.4110 hc        1 MOL      0.007556
    142 N13        -5.7000   -1.1880   -2.2900 n         1 MOL     -0.505673
    143 C46        -7.1070   -1.4970   -2.0390 c3        1 MOL      0.171330
    144 C47        -8.0930   -0.5020   -2.7840 c         1 MOL      0.646959
    145 O19        -7.7470   -0.0370   -3.8650 o         1 MOL     -0.562894
    146 C48        -7.3930   -2.9400   -2.3590 c3        1 MOL     -0.491708
    147 H67        -5.4830   -1.2600   -3.2660 hn        1 MOL      0.286247
    148 H68        -7.3400   -1.3900   -0.9680 h1        1 MOL      0.059778
    149 H69        -6.8080   -3.7010   -1.8500 hc        1 MOL      0.146105
    150 H70        -8.4290   -3.1540   -2.1350 hc        1 MOL      0.146105
    151 H71        -7.1410   -3.1510   -3.4040 hc        1 MOL      0.146105
    152 N14        -9.3230   -0.2350   -2.2900 n         1 MOL     -0.594506
    153 C49        -9.8960   -0.6030   -0.9710 c3        1 MOL     -0.141318
    154 C50        -9.5080    0.3630    0.1760 c         1 MOL      0.365561
    155 O20        -9.1300   -0.1930    1.2550 o         1 MOL     -0.502296
    156 C51       -11.4910   -0.6980   -1.1460 c3        1 MOL      0.293421
    157 C52       -12.0990   -1.3060    0.1480 c3        1 MOL     -0.419877
    158 C53       -13.6080   -1.1310    0.3250 c         1 MOL      0.737507
    159 O21       -14.0460   -0.0500    0.7450 o         1 MOL     -0.694854
    160 O22       -14.3930   -2.0630   -0.0740 o         1 MOL     -0.694854
    161 H72        -9.8970    0.4040   -2.8100 hn        1 MOL      0.339204
    162 H73        -9.7630   -1.5910   -0.5250 h1        1 MOL      0.145089
    163 H74       -11.7540   -1.3600   -1.9720 hc        1 MOL     -0.019171
    164 H75       -12.0110    0.2250   -1.3790 hc        1 MOL     -0.019171
    165 H76       -11.7200   -0.8380    1.0620 hc        1 MOL      0.093895
    166 H77       -11.7860   -2.3460    0.2370 hc        1 MOL      0.093895
    167 N15        -9.6560    1.7030    0.0910 n         1 MOL     -0.282105
    168 C54        -9.3500    2.6770    1.2490 c3        1 MOL     -0.237227
    169 H78       -10.2840    3.0220    1.6890 h1        1 MOL      0.130512
    170 H79        -8.7580    2.1650    2.0070 h1        1 MOL      0.130512
    171 H80        -8.7910    3.5320    0.8670 h1        1 MOL      0.130512
    172 H81        -9.9780    2.0740   -0.7890 hn        1 MOL      0.270019
    173 Ca1         2.4590    0.4840   -0.8070 Ca        1 MOL      1.771660
    174 O23         1.8550    2.3920   -2.5440 oh        1 MOL     -0.860269
    175 H82         1.4750    3.2760   -2.4740 ho        1 MOL      0.424802
    176 H83         2.1470    2.3410   -3.4490 ho        1 MOL      0.424802
    177 O24        -0.0650    0.4880   -1.5450 oh        1 MOL     -0.860269
    178 H84        -0.3050    0.6140   -2.4580 ho        1 MOL      0.424802
    179 H85        -0.7780    0.8810   -1.0440 ho        1 MOL      0.424802
@<TRIPOS>BOND
     1    1    2 1   
     2    1    4 1   
     3    1    5 1   
     4    1    6 1   
     5    2    3 2   
     6    2    7 1   
     7    7    8 1   
     8    7   15 1   
     9    8    9 1   
    10    8   11 1   
    11    8   16 1   
    12    9   10 2   
    13    9   19 1   
    14   11   12 1   
    15   11   17 1   
    16   11   18 1   
    17   12   13 1   
    18   12   14 1   
    19   19   20 1   
    20   19   28 1   
    21   20   21 1   
    22   20   23 1   
    23   20   29 1   
    24   21   22 2   
    25   21   41 1   
    26   23   24 1   
    27   23   30 1   
    28   23   31 1   
    29   24   25 1   
    30   24   32 1   
    31   24   33 1   
    32   25   26 1   
    33   25   34 1   
    34   25   35 1   
    35   26   27 1   
    36   26   36 1   
    37   26   37 1   
    38   27   38 1   
    39   27   39 1   
    40   27   40 1   
    41   41   42 1   
    42   41   49 1   
    43   42   43 1   
    44   42   45 1   
    45   42   50 1   
    46   43   44 2   
    47   43   53 1   
    48   45   46 1   
    49   45   51 1   
    50   45   52 1   
    51   46   47 1   
    52   46   48 1   
    53   53   54 1   
    54   53   57 1   
    55   54   55 1   
    56   54   58 1   
    57   54   59 1   
    58   55   56 2   
    59   55   60 1   
    60   60   61 1   
    61   60   68 1   
    62   61   62 1   
    63   61   64 1   
    64   61   69 1   
    65   62   63 2   
    66   62   74 1   
    67   64   65 1   
    68   64   70 1   
    69   64   71 1   
    70   65   66 1   
    71   65   67 2   
    72   66   72 1   
    73   66   73 1   
    74   74   75 1   
    75   74   78 1   
    76   75   76 1   
    77   75   79 1   
    78   75   80 1   
    79   76   77 2   
    80   76   81 1   
    81   81   82 1   
    82   81   93 1   
    83   82   83 1   
    84   82   85 1   
    85   82   94 1   
    86   83   84 2   
    87   83  102 1   
    88   85   86 1   
    89   85   95 1   
    90   85   96 1   
    91   86   87 ar  
    92   86   88 ar  
    93   87   89 ar  
    94   87   97 1   
    95   88   90 ar  
    96   88   98 1   
    97   89   91 ar  
    98   89   99 1   
    99   90   91 ar  
   100   90  100 1   
   101   91   92 1   
   102   92  101 1   
   103  102  103 1   
   104  102  110 1   
   105  103  104 1   
   106  103  106 1   
   107  103  111 1   
   108  104  105 2   
   109  104  121 1   
   110  106  107 1   
   111  106  108 1   
   112  106  112 1   
   113  107  109 1   
   114  107  113 1   
   115  107  114 1   
   116  108  115 1   
   117  108  116 1   
   118  108  117 1   
   119  109  118 1   
   120  109  119 1   
   121  109  120 1   
   122  121  122 1   
   123  121  127 1   
   124  122  123 1   
   125  122  125 1   
   126  122  128 1   
   127  123  124 2   
   128  123  132 1   
   129  125  126 1   
   130  125  129 1   
   131  125  130 1   
   132  126  131 1   
   133  132  133 1   
   134  132  137 1   
   135  133  134 1   
   136  133  136 1   
   137  133  138 1   
   138  134  135 2   
   139  134  142 1   
   140  136  139 1   
   141  136  140 1   
   142  136  141 1   
   143  142  143 1   
   144  142  147 1   
   145  143  144 1   
   146  143  146 1   
   147  143  148 1   
   148  144  145 2   
   149  144  152 1   
   150  146  149 1   
   151  146  150 1   
   152  146  151 1   
   153  152  153 1   
   154  152  161 1   
   155  153  154 1   
   156  153  156 1   
   157  153  162 1   
   158  154  155 2   
   159  154  167 1   
   160  156  157 1   
   161  156  163 1   
   162  156  164 1   
   163  157  158 1   
   164  157  165 1   
   165  157  166 1   
   166  158  159 1   
   167  158  160 1   
   168  167  168 1   
   169  167  172 1   
   170  168  169 1   
   171  168  170 1   
   172  168  171 1   
   173  174  175 1   
   174  174  176 1   
   175  177  178 1   
   176  177  179 1   
@<TRIPOS>SUBSTRUCTURE
     1 MOL         1 TEMP              0 ****  ****    0 ROOT
