@<TRIPOS>MOLECULE
MOL
  188   182     1     0     0
SMALL
resp


@<TRIPOS>ATOM
      1 C1         -3.0870    1.0120   -4.5790 c3        1 MOL     -0.354479
      2 C2         -4.1800    0.7180   -3.5380 c         1 MOL      0.712388
      3 O1         -3.9320    0.1470   -2.4780 o         1 MOL     -0.594006
      4 H1         -3.5300    1.5180   -5.4370 hc        1 MOL      0.094358
      5 H2         -2.3240    1.6510   -4.1350 hc        1 MOL      0.094358
      6 H3         -2.6340    0.0750   -4.9050 hc        1 MOL      0.094358
      7 N1         -5.4470    0.9890   -3.8840 n         1 MOL     -0.765801
      8 C3         -6.5700    1.0970   -2.9800 c3        1 MOL      0.344067
      9 C4         -7.1280   -0.1020   -2.1500 c         1 MOL      0.264382
     10 O2         -8.0120    0.1010   -1.3150 o         1 MOL     -0.430092
     11 C5         -6.2860    2.3520   -2.1980 c3        1 MOL     -0.461692
     12 C6         -7.4930    2.8470   -1.3870 c         1 MOL      0.770768
     13 O3         -7.4160    3.0120   -0.1800 o         1 MOL     -0.641074
     14 O4         -8.5640    3.2310   -1.9860 o         1 MOL     -0.641074
     15 H4         -5.5710    1.5040   -4.7450 hn        1 MOL      0.394519
     16 H5         -7.4030    1.4330   -3.5860 h1        1 MOL     -0.004899
     17 H6         -5.9600    3.1420   -2.8770 hc        1 MOL      0.128003
     18 H7         -5.5420    2.0330   -1.4660 hc        1 MOL      0.128003
     19 N2         -6.5250   -1.2800   -2.1940 n         1 MOL     -0.256755
     20 C7         -6.8030   -2.4270   -1.3010 c3        1 MOL      0.189213
     21 C8         -5.7110   -2.4140   -0.1790 c         1 MOL      0.500326
     22 O5         -5.9220   -3.1710    0.7890 o         1 MOL     -0.567583
     23 C9         -6.7840   -3.7070   -2.0670 c3        1 MOL     -0.341390
     24 C10        -8.0680   -4.0250   -2.9550 c3        1 MOL      0.136440
     25 C11        -7.8780   -5.2090   -3.8210 c3        1 MOL     -0.030808
     26 C12        -9.0620   -5.6050   -4.7080 c3        1 MOL     -0.037011
     27 N3        -10.1410   -6.1830   -3.9390 n4        1 MOL     -0.140587
     28 H8         -5.7330   -1.3090   -2.8210 hn        1 MOL      0.214986
     29 H9         -7.8040   -2.3810   -0.8640 h1        1 MOL      0.075523
     30 H10        -6.6520   -4.5180   -1.3460 hc        1 MOL      0.087711
     31 H11        -5.9530   -3.6310   -2.7610 hc        1 MOL      0.087711
     32 H12        -8.2990   -3.1180   -3.5090 hc        1 MOL     -0.005506
     33 H13        -8.9160   -4.1010   -2.2630 hc        1 MOL     -0.005506
     34 H14        -7.5410   -6.0150   -3.1740 hc        1 MOL      0.040780
     35 H15        -7.0480   -5.0570   -4.5030 hc        1 MOL      0.040780
     36 H16        -8.7120   -6.3460   -5.4320 hx        1 MOL      0.078679
     37 H17        -9.3850   -4.7230   -5.2590 hx        1 MOL      0.078679
     38 H18       -10.9290   -6.4560   -4.5170 hn        1 MOL      0.205818
     39 H19        -9.8540   -7.0340   -3.4560 hn        1 MOL      0.205818
     40 H20       -10.5040   -5.5900   -3.2060 hn        1 MOL      0.205818
     41 N4         -4.5950   -1.6810   -0.3270 n         1 MOL     -0.372850
     42 C13        -3.5820   -1.5550    0.7410 c3        1 MOL      0.063087
     43 C14        -4.1880   -0.9960    2.0700 c         1 MOL      0.486193
     44 O6         -4.9460   -0.0000    2.0050 o         1 MOL     -0.445193
     45 C15        -2.4250   -0.6160    0.3040 c3        1 MOL     -0.381776
     46 C16        -1.2230   -0.6090    1.1490 c         1 MOL      0.983646
     47 O7         -1.2810   -0.2010    2.3420 o         1 MOL     -0.786430
     48 O8         -0.1940   -1.2230    0.8140 o         1 MOL     -0.786430
     49 H21        -4.3790   -1.1210   -1.1380 hn        1 MOL      0.302650
     50 H22        -3.2210   -2.5610    0.9470 h1        1 MOL      0.056460
     51 H23        -2.8160    0.4060    0.3290 hc        1 MOL      0.107879
     52 H24        -2.1030   -0.9610   -0.6740 hc        1 MOL      0.107879
     53 N5         -3.8590   -1.5900    3.2080 n         1 MOL     -0.295670
     54 C17        -4.4850   -1.2860    4.5370 c3        1 MOL     -0.208707
     55 C18        -4.1210    0.1130    5.0340 c         1 MOL      0.486483
     56 O9         -4.9590    0.7690    5.6950 o         1 MOL     -0.534489
     57 H25        -3.3030   -2.4330    3.2040 hn        1 MOL      0.264630
     58 H26        -4.2120   -1.9900    5.3300 h1        1 MOL      0.124760
     59 H27        -5.5750   -1.2930    4.4330 h1        1 MOL      0.124760
     60 N6         -2.9200    0.5870    4.7050 n         1 MOL     -0.357308
     61 C19        -2.3220    1.8330    5.2520 c3        1 MOL      0.089276
     62 C20        -2.1330    2.8710    4.1730 c         1 MOL      0.511187
     63 O10        -2.1050    4.0750    4.4680 o         1 MOL     -0.575429
     64 C21        -1.1190    1.4900    6.0710 c3        1 MOL     -0.149591
     65 C22         0.1970    1.0780    5.3360 c         1 MOL      0.552800
     66 N7          0.8890    2.0770    4.8440 n         1 MOL     -0.652540
     67 O11         0.4660   -0.0560    4.9810 o         1 MOL     -0.617064
     68 H28        -2.3990   -0.0490    4.1180 hn        1 MOL      0.257907
     69 H29        -3.0630    2.3210    5.8900 h1        1 MOL      0.097813
     70 H30        -1.3060    0.6570    6.7440 hc        1 MOL      0.059877
     71 H31        -0.9000    2.3300    6.7270 hc        1 MOL      0.059877
     72 H32         0.6790    3.0150    5.1600 hn        1 MOL      0.325479
     73 H33         1.7790    1.9980    4.3740 hn        1 MOL      0.325479
     74 N8         -2.0340    2.4760    2.8990 n         1 MOL     -0.130430
     75 C23        -1.9730    3.3710    1.7470 c3        1 MOL     -0.235623
     76 C24        -0.5890    3.6130    1.2170 c         1 MOL      0.664659
     77 O12         0.4090    3.4340    1.9110 o         1 MOL     -0.612289
     78 H34        -2.0440    1.4940    2.6600 hn        1 MOL      0.117352
     79 H35        -2.4340    4.3160    2.0140 h1        1 MOL      0.126759
     80 H36        -2.5190    2.9340    0.9080 h1        1 MOL      0.126759
     81 N9         -0.5170    4.0170   -0.0100 n         1 MOL     -0.404319
     82 C25         0.5960    4.1540   -0.8390 c3        1 MOL      0.026432
     83 C26         1.0790    2.7990   -1.4700 c         1 MOL      0.526110
     84 O13         0.2880    1.8930   -1.7490 o         1 MOL     -0.537000
     85 C27         0.3350    5.1540   -1.9840 c3        1 MOL     -0.106876
     86 C28         0.1560    6.6320   -1.5280 ca        1 MOL      0.044030
     87 C29         1.2840    7.4790   -1.4800 ca        1 MOL     -0.112572
     88 C30        -1.1340    7.1030   -1.3280 ca        1 MOL     -0.112572
     89 C31         1.1150    8.8580   -1.1030 ca        1 MOL     -0.346139
     90 C32        -1.3300    8.4920   -0.9800 ca        1 MOL     -0.346139
     91 C33        -0.2540    9.3470   -0.8890 ca        1 MOL      0.426377
     92 O14        -0.4060   10.6350   -0.4870 oh        1 MOL     -0.466037
     93 H37        -1.4090    4.0460   -0.4840 hn        1 MOL      0.298685
     94 H38         1.4580    4.6790   -0.4330 h1        1 MOL      0.038428
     95 H39        -0.5800    4.7950   -2.4520 hc        1 MOL      0.037148
     96 H40         1.1300    5.0590   -2.7150 hc        1 MOL      0.037148
     97 H41         2.2420    7.1100   -1.8080 ha        1 MOL      0.125928
     98 H42        -1.9510    6.3930   -1.3300 ha        1 MOL      0.125928
     99 H43         1.9670    9.5310   -1.0100 ha        1 MOL      0.182706
    100 H44        -2.2930    8.9040   -0.6900 ha        1 MOL      0.182706
    101 H45         0.4420   10.9670   -0.2060 ho        1 MOL      0.336652
    102 N10         2.3690    2.6170   -1.5940 n         1 MOL     -0.438342
    103 C34         3.1010    1.4430   -2.0660 c3        1 MOL      0.078666
    104 C35         4.3810    1.1470   -1.2970 c         1 MOL      0.274525
    105 O15         4.5810    0.0930   -0.7800 o         1 MOL     -0.402112
    106 C36         3.3220    1.5160   -3.5920 c3        1 MOL      0.237700
    107 C37         1.9690    1.6930   -4.3450 c3        1 MOL     -0.174080
    108 C38         4.2090    0.2910   -4.0580 c3        1 MOL     -0.473134
    109 C39         2.1300    1.7180   -5.8790 c3        1 MOL     -0.398584
    110 H46         2.9060    3.4030   -1.2390 hn        1 MOL      0.223011
    111 H47         2.5060    0.5490   -1.8740 h1        1 MOL      0.094977
    112 H48         3.8900    2.4470   -3.6570 hc        1 MOL     -0.066253
    113 H49         1.5800    2.6190   -3.9130 hc        1 MOL      0.144682
    114 H50         1.2760    0.8720   -4.1680 hc        1 MOL      0.144682
    115 H51         5.1740    0.4250   -3.5700 hc        1 MOL      0.131330
    116 H52         3.6390   -0.6210   -3.8720 hc        1 MOL      0.131330
    117 H53         4.3680    0.3690   -5.1370 hc        1 MOL      0.131330
    118 H54         2.9240    2.3880   -6.1970 hc        1 MOL      0.106141
    119 H55         2.4230    0.7300   -6.2270 hc        1 MOL      0.106141
    120 H56         1.2200    1.9350   -6.4320 hc        1 MOL      0.106141
    121 N11         5.1980    2.2100   -1.1050 n         1 MOL     -0.158976
    122 C40         6.3480    2.0980   -0.2340 c3        1 MOL     -0.338023
    123 C41         7.4370    1.0180   -0.5650 c         1 MOL      0.503536
    124 O16         8.2750    0.6700    0.2480 o         1 MOL     -0.499123
    125 C42         7.0130    3.4850   -0.1750 c3        1 MOL      0.199217
    126 O17         7.1130    4.0640   -1.4650 oh        1 MOL     -0.640788
    127 H57         4.9990    3.0850   -1.5550 hn        1 MOL      0.250335
    128 H58         5.9680    1.9530    0.7790 h1        1 MOL      0.144723
    129 H59         8.0160    3.3830    0.2460 h1        1 MOL      0.052028
    130 H60         6.4710    4.1630    0.4770 h1        1 MOL      0.052028
    131 H61         7.3430    4.9880   -1.5170 ho        1 MOL      0.422828
    132 N12         7.4150    0.5320   -1.8390 n         1 MOL     -0.076116
    133 C43         8.2410   -0.5170   -2.3490 c3        1 MOL      0.221394
    134 C44         8.1940   -1.8390   -1.5940 c         1 MOL      0.406127
    135 O18         9.2460   -2.4730   -1.3120 o         1 MOL     -0.534474
    136 C45         9.6590    0.0350   -2.7150 c3        1 MOL     -0.485406
    137 H62         7.0080    1.2000   -2.4870 hn        1 MOL      0.143733
    138 H63         7.9210   -0.8450   -3.3300 h1        1 MOL      0.016870
    139 H64         9.6410    1.0400   -3.1470 hc        1 MOL      0.132352
    140 H65        10.3240    0.1180   -1.8560 hc        1 MOL      0.132352
    141 H66        10.0860   -0.6940   -3.3870 hc        1 MOL      0.132352
    142 N13         7.0140   -2.1000   -1.0470 n         1 MOL     -0.306216
    143 C46         6.7450   -3.0640    0.0190 c3        1 MOL      0.418175
    144 C47         5.4640   -3.8540   -0.3520 c         1 MOL      0.158469
    145 O19         4.6040   -3.2780   -1.0480 o         1 MOL     -0.410937
    146 C48         6.4820   -2.3240    1.2640 c3        1 MOL     -0.211020
    147 H67         6.2310   -1.5380   -1.3470 hn        1 MOL      0.080017
    148 H68         7.5010   -3.8180    0.2130 h1        1 MOL     -0.021501
    149 H69         5.7040   -1.6010    1.0310 hc        1 MOL      0.058880
    150 H70         6.1640   -3.0230    2.0330 hc        1 MOL      0.058880
    151 H71         7.3730   -1.7880    1.5950 hc        1 MOL      0.058880
    152 N14         5.2900   -5.0620    0.1320 n         1 MOL     -0.432532
    153 C49         4.1280   -5.9050    0.0110 c3        1 MOL     -0.208417
    154 C50         3.6270   -6.1460   -1.4950 c         1 MOL      0.372498
    155 O20         2.5500   -6.7420   -1.7240 o         1 MOL     -0.474144
    156 C51         3.0160   -5.1920    0.8660 c3        1 MOL      0.195566
    157 C52         1.7310   -5.8860    1.1680 c3        1 MOL     -0.322894
    158 C53         0.6800   -5.2320    2.0950 c         1 MOL      0.752927
    159 O21        -0.0420   -5.8890    2.8520 o         1 MOL     -0.716258
    160 O22         0.6160   -3.9980    2.1200 o         1 MOL     -0.716258
    161 H72         6.1050   -5.4970    0.5350 hn        1 MOL      0.338600
    162 H73         4.4080   -6.8320    0.5110 h1        1 MOL      0.141708
    163 H74         2.7260   -4.2720    0.3600 hc        1 MOL      0.019388
    164 H75         3.4000   -4.9630    1.8660 hc        1 MOL      0.019388
    165 H76         2.0460   -6.8270    1.6090 hc        1 MOL      0.072034
    166 H77         1.1680   -6.2090    0.2970 hc        1 MOL      0.072034
    167 N15         4.4070   -5.6660   -2.4640 n         1 MOL     -0.136828
    168 C54         4.3050   -5.7790   -3.8720 c3        1 MOL     -0.027152
    169 H78         3.6400   -5.0030   -4.2510 h1        1 MOL      0.046633
    170 H79         5.2920   -5.6590   -4.3200 h1        1 MOL      0.046633
    171 H80         3.9050   -6.7590   -4.1310 h1        1 MOL      0.046633
    172 H81         5.1690   -5.1360   -2.0570 hn        1 MOL      0.222692
    173 Ca1         1.0330   -1.6300    2.9100 Ca        1 MOL      1.715357
    174 O23         1.5780    0.9550    2.0620 oh        1 MOL     -0.865044
    175 H82         2.3350    1.3840    1.6610 ho        1 MOL      0.424519
    176 H83         0.9140    1.6480    2.1090 ho        1 MOL      0.424519
    177 O24         3.4800   -0.7390    3.8210 oh        1 MOL     -0.865044
    178 H84         4.2470   -0.2210    3.6030 ho        1 MOL      0.424519
    179 H85         3.1830   -0.3840    4.6570 ho        1 MOL      0.424519
    180 O25         2.1940   -3.2320    4.7940 oh        1 MOL     -0.865044
    181 H86         3.0650   -3.0160    5.1160 ho        1 MOL      0.424519
    182 H87         2.0180   -4.1030    5.1510 ho        1 MOL      0.424519
    183 O26         3.0380   -1.7900    0.8890 oh        1 MOL     -0.865044
    184 H88         3.2980   -2.2340    0.0860 ho        1 MOL      0.424519
    185 H89         3.7410   -1.1600    1.0530 ho        1 MOL      0.424519
    186 O27        -1.0240   -2.5880    4.2310 oh        1 MOL     -0.865044
    187 H90        -1.1050   -3.5170    4.0190 ho        1 MOL      0.424519
    188 H91        -0.7620   -2.5800    5.1540 ho        1 MOL      0.424519
@<TRIPOS>BOND
     1    1    2 1   
     2    1    4 1   
     3    1    5 1   
     4    1    6 1   
     5    2    3 2   
     6    2    7 1   
     7    7    8 1   
     8    7   15 1   
     9    8    9 1   
    10    8   11 1   
    11    8   16 1   
    12    9   10 2   
    13    9   19 1   
    14   11   12 1   
    15   11   17 1   
    16   11   18 1   
    17   12   13 1   
    18   12   14 1   
    19   19   20 1   
    20   19   28 1   
    21   20   21 1   
    22   20   23 1   
    23   20   29 1   
    24   21   22 2   
    25   21   41 1   
    26   23   24 1   
    27   23   30 1   
    28   23   31 1   
    29   24   25 1   
    30   24   32 1   
    31   24   33 1   
    32   25   26 1   
    33   25   34 1   
    34   25   35 1   
    35   26   27 1   
    36   26   36 1   
    37   26   37 1   
    38   27   38 1   
    39   27   39 1   
    40   27   40 1   
    41   41   42 1   
    42   41   49 1   
    43   42   43 1   
    44   42   45 1   
    45   42   50 1   
    46   43   44 2   
    47   43   53 1   
    48   45   46 1   
    49   45   51 1   
    50   45   52 1   
    51   46   47 1   
    52   46   48 1   
    53   53   54 1   
    54   53   57 1   
    55   54   55 1   
    56   54   58 1   
    57   54   59 1   
    58   55   56 2   
    59   55   60 1   
    60   60   61 1   
    61   60   68 1   
    62   61   62 1   
    63   61   64 1   
    64   61   69 1   
    65   62   63 2   
    66   62   74 1   
    67   64   65 1   
    68   64   70 1   
    69   64   71 1   
    70   65   66 1   
    71   65   67 2   
    72   66   72 1   
    73   66   73 1   
    74   74   75 1   
    75   74   78 1   
    76   75   76 1   
    77   75   79 1   
    78   75   80 1   
    79   76   77 2   
    80   76   81 1   
    81   81   82 1   
    82   81   93 1   
    83   82   83 1   
    84   82   85 1   
    85   82   94 1   
    86   83   84 2   
    87   83  102 1   
    88   85   86 1   
    89   85   95 1   
    90   85   96 1   
    91   86   87 ar  
    92   86   88 ar  
    93   87   89 ar  
    94   87   97 1   
    95   88   90 ar  
    96   88   98 1   
    97   89   91 ar  
    98   89   99 1   
    99   90   91 ar  
   100   90  100 1   
   101   91   92 1   
   102   92  101 1   
   103  102  103 1   
   104  102  110 1   
   105  103  104 1   
   106  103  106 1   
   107  103  111 1   
   108  104  105 2   
   109  104  121 1   
   110  106  107 1   
   111  106  108 1   
   112  106  112 1   
   113  107  109 1   
   114  107  113 1   
   115  107  114 1   
   116  108  115 1   
   117  108  116 1   
   118  108  117 1   
   119  109  118 1   
   120  109  119 1   
   121  109  120 1   
   122  121  122 1   
   123  121  127 1   
   124  122  123 1   
   125  122  125 1   
   126  122  128 1   
   127  123  124 2   
   128  123  132 1   
   129  125  126 1   
   130  125  129 1   
   131  125  130 1   
   132  126  131 1   
   133  132  133 1   
   134  132  137 1   
   135  133  134 1   
   136  133  136 1   
   137  133  138 1   
   138  134  135 2   
   139  134  142 1   
   140  136  139 1   
   141  136  140 1   
   142  136  141 1   
   143  142  143 1   
   144  142  147 1   
   145  143  144 1   
   146  143  146 1   
   147  143  148 1   
   148  144  145 2   
   149  144  152 1   
   150  146  149 1   
   151  146  150 1   
   152  146  151 1   
   153  152  153 1   
   154  152  161 1   
   155  153  154 1   
   156  153  156 1   
   157  153  162 1   
   158  154  155 2   
   159  154  167 1   
   160  156  157 1   
   161  156  163 1   
   162  156  164 1   
   163  157  158 1   
   164  157  165 1   
   165  157  166 1   
   166  158  159 1   
   167  158  160 1   
   168  167  168 1   
   169  167  172 1   
   170  168  169 1   
   171  168  170 1   
   172  168  171 1   
   173  174  175 1   
   174  174  176 1   
   175  177  178 1   
   176  177  179 1   
   177  180  181 1   
   178  180  182 1   
   179  183  184 1   
   180  183  185 1   
   181  186  187 1   
   182  186  188 1   
@<TRIPOS>SUBSTRUCTURE
     1 MOL         1 TEMP              0 ****  ****    0 ROOT
