@<TRIPOS>MOLECULE
MOL
  179   176     1     0     0
SMALL
resp


@<TRIPOS>ATOM
      1 C1          0.9020   -4.6840    5.7230 c3        1 MOL     -0.276621
      2 C2          1.0410   -4.3260    4.2230 c         1 MOL      0.725329
      3 O1          0.0970   -4.4490    3.4310 o         1 MOL     -0.590673
      4 H1          0.5160   -5.7000    5.8190 hc        1 MOL      0.071611
      5 H2          1.8770   -4.6200    6.2050 hc        1 MOL      0.071611
      6 H3          0.2130   -3.9880    6.2010 hc        1 MOL      0.071611
      7 N1          2.2880   -3.9310    3.8840 n         1 MOL     -0.549079
      8 C3          2.5440   -3.4620    2.4910 c3        1 MOL      0.001580
      9 C4          2.7290   -4.5720    1.4860 c         1 MOL      0.728100
     10 O2          3.5020   -5.5140    1.7010 o         1 MOL     -0.596069
     11 C5          3.6850   -2.3230    2.5330 c3        1 MOL     -0.027052
     12 C6          3.6580   -1.4810    1.2990 c         1 MOL      0.475780
     13 O3          4.2350   -0.3480    1.2550 o         1 MOL     -0.667449
     14 O4          3.0480   -1.8360    0.2880 o         1 MOL     -0.667449
     15 H4          3.0030   -3.8840    4.5920 hn        1 MOL      0.323246
     16 H5          1.6620   -2.8890    2.2020 h1        1 MOL     -0.181838
     17 H6          4.6770   -2.7730    2.6080 hc        1 MOL      0.041436
     18 H7          3.4960   -1.7070    3.4090 hc        1 MOL      0.041436
     19 N2          2.0430   -4.5060    0.3500 n         1 MOL     -0.495973
     20 C7          2.2010   -5.3770   -0.8070 c3        1 MOL      0.070899
     21 C8          3.5090   -5.3040   -1.6690 c         1 MOL      0.467691
     22 O5          3.7640   -6.2970   -2.3610 o         1 MOL     -0.535122
     23 C9          0.9500   -5.3930   -1.7070 c3        1 MOL     -0.023351
     24 C10        -0.3120   -5.8910   -0.9900 c3        1 MOL      0.016181
     25 C11        -1.4830   -5.5760   -1.9040 c3        1 MOL      0.021129
     26 C12        -2.7660   -6.2230   -1.2750 c3        1 MOL     -0.073094
     27 N3         -3.9030   -5.5390   -1.8860 n4        1 MOL     -0.148006
     28 H8          1.5040   -3.6700    0.2120 hn        1 MOL      0.275071
     29 H9          2.2870   -6.4070   -0.4680 h1        1 MOL      0.071865
     30 H10         1.2120   -6.1180   -2.4830 hc        1 MOL      0.025824
     31 H11         0.7350   -4.4080   -2.1040 hc        1 MOL      0.025824
     32 H12        -0.4640   -5.2770   -0.1070 hc        1 MOL      0.022137
     33 H13        -0.2890   -6.9350   -0.6570 hc        1 MOL      0.022137
     34 H14        -1.4070   -6.0560   -2.8830 hc        1 MOL     -0.009582
     35 H15        -1.6880   -4.5170   -2.0400 hc        1 MOL     -0.009582
     36 H16        -2.7790   -5.9350   -0.2210 hx        1 MOL      0.115262
     37 H17        -2.7740   -7.3050   -1.3500 hx        1 MOL      0.115262
     38 H18        -4.0070   -4.5640   -1.6620 hn        1 MOL      0.228828
     39 H19        -3.7950   -5.5520   -2.8820 hn        1 MOL      0.228828
     40 H20        -4.7510   -6.0490   -1.6800 hn        1 MOL      0.228828
     41 N4          4.1130   -4.1320   -1.6610 n         1 MOL     -0.397066
     42 C13         5.2320   -3.7710   -2.5670 c3        1 MOL      0.027914
     43 C14         6.3950   -3.0730   -1.7190 c         1 MOL      0.402158
     44 O6          7.4170   -2.7610   -2.2770 o         1 MOL     -0.541192
     45 C15         4.6940   -2.7750   -3.6010 c3        1 MOL     -0.158751
     46 C16         3.9890   -1.6050   -2.9540 c         1 MOL      0.690286
     47 O7          2.7490   -1.6110   -2.9920 o         1 MOL     -0.794789
     48 O8          4.6170   -0.9050   -2.2010 o         1 MOL     -0.794789
     49 H21         3.7080   -3.4260   -1.0610 hn        1 MOL      0.370705
     50 H22         5.6160   -4.6470   -3.0880 h1        1 MOL      0.111619
     51 H23         4.0790   -3.3720   -4.2680 hc        1 MOL      0.070635
     52 H24         5.4540   -2.4140   -4.2870 hc        1 MOL      0.070635
     53 N5          6.1830   -2.7950   -0.4370 n         1 MOL     -0.053788
     54 C17         7.2400   -2.3740    0.5100 c3        1 MOL     -0.406468
     55 C18         7.6130   -0.8870    0.4350 c         1 MOL      0.553013
     56 O9          8.3420   -0.4360    1.2980 o         1 MOL     -0.542736
     57 H25         5.2380   -2.9170   -0.1240 hn        1 MOL      0.048886
     58 H26         8.1110   -3.0220    0.3460 h1        1 MOL      0.186751
     59 H27         6.7270   -2.3560    1.4690 h1        1 MOL      0.186751
     60 N6          7.0270   -0.1470   -0.4880 n         1 MOL     -0.181522
     61 C19         7.3120    1.2710   -0.8760 c3        1 MOL     -0.045332
     62 C20         6.1360    2.2940   -0.6820 c         1 MOL      0.664169
     63 O10         4.9800    1.9460   -0.7900 o         1 MOL     -0.667148
     64 C21         7.8020    1.2390   -2.4110 c3        1 MOL     -0.228103
     65 C22         8.5920    2.5590   -2.7920 c         1 MOL      0.702844
     66 N7          8.6570    2.8230   -4.0230 n         1 MOL     -0.819810
     67 O11         9.1820    3.2840   -2.0420 o         1 MOL     -0.568900
     68 H28         6.3520   -0.5960   -1.0810 hn        1 MOL      0.315305
     69 H29         8.1420    1.6000   -0.2680 h1        1 MOL      0.056638
     70 H30         6.9930    1.1320   -3.1400 hc        1 MOL      0.078625
     71 H31         8.4730    0.4100   -2.6380 hc        1 MOL      0.078625
     72 H32         8.1710    2.1940   -4.6420 hn        1 MOL      0.380525
     73 H33         9.2060    3.6300   -4.2530 hn        1 MOL      0.380525
     74 N8          6.2880    3.5820   -0.6050 n         1 MOL     -0.386093
     75 C23         5.2590    4.5750   -0.5630 c3        1 MOL     -0.147617
     76 C24         4.3200    4.5770    0.6740 c         1 MOL      0.691277
     77 O12         4.7930    4.5560    1.8120 o         1 MOL     -0.544127
     78 H34         7.1620    4.0830   -0.6880 hn        1 MOL      0.292106
     79 H35         4.5590    4.4890   -1.3950 h1        1 MOL      0.073390
     80 H36         5.8410    5.4910   -0.5720 h1        1 MOL      0.073390
     81 N9          3.0400    4.7320    0.4520 n         1 MOL     -0.687763
     82 C25         1.9600    4.4060    1.3750 c3        1 MOL      0.913793
     83 C26         1.7970    2.9240    1.7920 c         1 MOL      0.182529
     84 O13         2.5220    2.0670    1.2770 o         1 MOL     -0.439556
     85 C27         0.7040    5.1710    0.9240 c3        1 MOL     -0.351566
     86 C28         0.9070    6.5710    0.3960 ca        1 MOL      0.189780
     87 C29         0.3400    6.9370   -0.7930 ca        1 MOL     -0.236375
     88 C30         1.7140    7.4820    1.1650 ca        1 MOL     -0.236375
     89 C31         0.4780    8.2910   -1.1660 ca        1 MOL     -0.182635
     90 C32         2.0030    8.7660    0.6880 ca        1 MOL     -0.182635
     91 C33         1.3380    9.1970   -0.5030 ca        1 MOL      0.212045
     92 O14         1.5820   10.4880   -0.9030 oh        1 MOL     -0.391831
     93 H37         2.7980    4.7990   -0.5200 hn        1 MOL      0.241483
     94 H38         2.2150    4.8220    2.3490 h1        1 MOL     -0.091907
     95 H39         0.1160    5.2880    1.8410 hc        1 MOL      0.048030
     96 H40         0.2680    4.4850    0.2050 hc        1 MOL      0.048030
     97 H41        -0.3940    6.3420   -1.3250 ha        1 MOL      0.141690
     98 H42         2.0740    7.1610    2.1340 ha        1 MOL      0.141690
     99 H43        -0.0560    8.6610   -2.0340 ha        1 MOL      0.150440
    100 H44         2.6070    9.4310    1.2880 ha        1 MOL      0.150440
    101 H45         0.9430   10.7270   -1.5770 ho        1 MOL      0.321172
    102 N10         0.8060    2.5740    2.6190 n         1 MOL     -0.550139
    103 C34         0.3950    1.1670    2.9830 c3        1 MOL      0.171144
    104 C35        -0.0720    0.2450    1.8170 c         1 MOL      0.118090
    105 O15         0.6880   -0.0470    0.8580 o         1 MOL     -0.051586
    106 C36         1.3470    0.4610    3.9100 c3        1 MOL      0.393041
    107 C37         0.7740   -0.8850    4.4800 c3        1 MOL     -0.047510
    108 C38         1.8650    1.3790    4.9350 c3        1 MOL     -0.332322
    109 C39        -0.4400   -0.8410    5.3480 c3        1 MOL     -0.113555
    110 H46         0.3060    3.3060    3.1010 hn        1 MOL      0.288700
    111 H47        -0.4460    1.3070    3.6620 h1        1 MOL      0.001038
    112 H48         2.2110    0.1950    3.3050 hc        1 MOL     -0.023903
    113 H49         1.5640   -1.3220    5.0940 hc        1 MOL      0.039866
    114 H50         0.5070   -1.4630    3.5990 hc        1 MOL      0.039866
    115 H51         2.2800    2.3070    4.5240 hc        1 MOL      0.074624
    116 H52         1.1760    1.6690    5.7300 hc        1 MOL      0.074624
    117 H53         2.7500    0.9390    5.4000 hc        1 MOL      0.074624
    118 H54        -0.4210    0.0240    6.0080 hc        1 MOL      0.026919
    119 H55        -1.3390   -0.8070    4.7140 hc        1 MOL      0.026919
    120 H56        -0.4930   -1.6750    6.0470 hc        1 MOL      0.026919
    121 N11        -1.3150   -0.2060    1.9000 n         1 MOL     -0.347431
    122 C40        -1.8730   -0.9030    0.7050 c3        1 MOL     -0.073613
    123 C41        -3.4120   -0.9750    0.6740 c         1 MOL      0.491551
    124 O16        -4.0410   -1.5810    1.6130 o         1 MOL     -0.524028
    125 C42        -1.4740   -2.3880    0.6250 c3        1 MOL     -0.005346
    126 O17        -0.1170   -2.5870    0.2690 oh        1 MOL     -0.173867
    127 H57        -1.8900   -0.0440    2.7120 hn        1 MOL      0.341003
    128 H58        -1.5050   -0.4640   -0.2200 h1        1 MOL      0.134674
    129 H59        -2.0890   -2.7710   -0.1970 h1        1 MOL      0.053663
    130 H60        -1.7670   -2.9360    1.5220 h1        1 MOL      0.053663
    131 H61         0.2390   -1.7320    0.0320 ho        1 MOL      0.098403
    132 N12        -4.0410   -0.2630   -0.2600 n         1 MOL     -0.528368
    133 C43        -5.5040   -0.1590   -0.5190 c3        1 MOL      0.400698
    134 C44        -5.7430    0.1060   -2.0440 c         1 MOL      0.359976
    135 O18        -4.7390    0.5000   -2.6550 o         1 MOL     -0.539883
    136 C45        -5.9710    1.0430    0.2810 c3        1 MOL     -0.409505
    137 H62        -3.4100    0.0370   -0.9880 hn        1 MOL      0.234284
    138 H63        -5.8210   -1.1680   -0.2340 h1        1 MOL     -0.000151
    139 H64        -5.3110    1.2010    1.1390 hc        1 MOL      0.133743
    140 H65        -5.9830    1.9830   -0.2670 hc        1 MOL      0.133743
    141 H66        -6.9930    0.8170    0.6000 hc        1 MOL      0.133743
    142 N13        -6.9140    0.1700   -2.6320 n         1 MOL     -0.408549
    143 C46        -8.1500   -0.1970   -1.9330 c3        1 MOL      0.169667
    144 C47        -9.3640    0.7730   -2.3590 c         1 MOL      0.446596
    145 O19        -9.4530    1.1470   -3.4980 o         1 MOL     -0.525230
    146 C48        -8.4960   -1.6530   -2.1960 c3        1 MOL     -0.232217
    147 H67        -6.9200    0.5280   -3.5760 hn        1 MOL      0.323618
    148 H68        -8.1310   -0.0940   -0.8480 h1        1 MOL      0.022849
    149 H69        -9.1120   -2.0870   -1.4080 hc        1 MOL      0.075207
    150 H70        -8.9400   -1.7780   -3.1860 hc        1 MOL      0.075207
    151 H71        -7.6190   -2.2970   -2.2330 hc        1 MOL      0.075207
    152 N14       -10.3560    1.1750   -1.5790 n         1 MOL     -0.495164
    153 C49       -10.4910    0.7580   -0.1720 c3        1 MOL     -0.114632
    154 C50        -9.7030    1.6030    0.7560 c         1 MOL      0.391991
    155 O20        -9.2460    1.0870    1.7570 o         1 MOL     -0.500954
    156 C51       -12.0330    0.6930    0.1250 c3        1 MOL      0.307856
    157 C52       -12.8030   -0.2930   -0.7490 c3        1 MOL     -0.288523
    158 C53       -14.3270   -0.3830   -0.4130 c         1 MOL      0.719456
    159 O21       -15.0480   -1.1190   -1.1340 o         1 MOL     -0.660133
    160 O22       -14.7520    0.0460    0.6570 o         1 MOL     -0.660133
    161 H72       -11.0960    1.7270   -2.0010 hn        1 MOL      0.377634
    162 H73       -10.1320   -0.2740   -0.1030 h1        1 MOL      0.107708
    163 H74       -12.5050    1.6780    0.0400 hc        1 MOL     -0.038618
    164 H75       -12.0740    0.3850    1.1620 hc        1 MOL     -0.038618
    165 H76       -12.4060   -1.3090   -0.6750 hc        1 MOL      0.045561
    166 H77       -12.7390    0.1160   -1.7560 hc        1 MOL      0.045561
    167 N15        -9.4270    2.8700    0.5940 n         1 MOL     -0.250223
    168 C54        -8.7050    3.7210    1.6200 c3        1 MOL     -0.246537
    169 H78        -8.1110    4.4800    1.1100 h1        1 MOL      0.120693
    170 H79        -9.4340    4.2070    2.2680 h1        1 MOL      0.120693
    171 H80        -8.0490    3.0910    2.2200 h1        1 MOL      0.120693
    172 H81        -9.7870    3.3280   -0.2210 hn        1 MOL      0.225324
    173 Ca1         2.7520    0.3630   -0.9470 Ca        1 MOL      1.780382
    174 O23         0.8280    2.2970   -1.5130 oh        1 MOL     -0.954043
    175 H82         1.1210    3.0980   -1.9360 ho        1 MOL      0.451454
    176 H83        -0.0950    2.2270   -1.7420 ho        1 MOL      0.451454
    177 O24         0.3500   -0.7720   -1.9980 oh        1 MOL     -0.954043
    178 H84        -0.5880   -0.9180   -2.1030 ho        1 MOL      0.451454
    179 H85         0.7410   -1.1120   -2.8020 ho        1 MOL      0.451454
@<TRIPOS>BOND
     1    1    2 1   
     2    1    4 1   
     3    1    5 1   
     4    1    6 1   
     5    2    3 2   
     6    2    7 1   
     7    7    8 1   
     8    7   15 1   
     9    8    9 1   
    10    8   11 1   
    11    8   16 1   
    12    9   10 2   
    13    9   19 1   
    14   11   12 1   
    15   11   17 1   
    16   11   18 1   
    17   12   13 1   
    18   12   14 1   
    19   19   20 1   
    20   19   28 1   
    21   20   21 1   
    22   20   23 1   
    23   20   29 1   
    24   21   22 2   
    25   21   41 1   
    26   23   24 1   
    27   23   30 1   
    28   23   31 1   
    29   24   25 1   
    30   24   32 1   
    31   24   33 1   
    32   25   26 1   
    33   25   34 1   
    34   25   35 1   
    35   26   27 1   
    36   26   36 1   
    37   26   37 1   
    38   27   38 1   
    39   27   39 1   
    40   27   40 1   
    41   41   42 1   
    42   41   49 1   
    43   42   43 1   
    44   42   45 1   
    45   42   50 1   
    46   43   44 2   
    47   43   53 1   
    48   45   46 1   
    49   45   51 1   
    50   45   52 1   
    51   46   47 1   
    52   46   48 1   
    53   53   54 1   
    54   53   57 1   
    55   54   55 1   
    56   54   58 1   
    57   54   59 1   
    58   55   56 2   
    59   55   60 1   
    60   60   61 1   
    61   60   68 1   
    62   61   62 1   
    63   61   64 1   
    64   61   69 1   
    65   62   63 2   
    66   62   74 1   
    67   64   65 1   
    68   64   70 1   
    69   64   71 1   
    70   65   66 1   
    71   65   67 2   
    72   66   72 1   
    73   66   73 1   
    74   74   75 1   
    75   74   78 1   
    76   75   76 1   
    77   75   79 1   
    78   75   80 1   
    79   76   77 2   
    80   76   81 1   
    81   81   82 1   
    82   81   93 1   
    83   82   83 1   
    84   82   85 1   
    85   82   94 1   
    86   83   84 2   
    87   83  102 1   
    88   85   86 1   
    89   85   95 1   
    90   85   96 1   
    91   86   87 ar  
    92   86   88 ar  
    93   87   89 ar  
    94   87   97 1   
    95   88   90 ar  
    96   88   98 1   
    97   89   91 ar  
    98   89   99 1   
    99   90   91 ar  
   100   90  100 1   
   101   91   92 1   
   102   92  101 1   
   103  102  103 1   
   104  102  110 1   
   105  103  104 1   
   106  103  106 1   
   107  103  111 1   
   108  104  105 2   
   109  104  121 1   
   110  106  107 1   
   111  106  108 1   
   112  106  112 1   
   113  107  109 1   
   114  107  113 1   
   115  107  114 1   
   116  108  115 1   
   117  108  116 1   
   118  108  117 1   
   119  109  118 1   
   120  109  119 1   
   121  109  120 1   
   122  121  122 1   
   123  121  127 1   
   124  122  123 1   
   125  122  125 1   
   126  122  128 1   
   127  123  124 2   
   128  123  132 1   
   129  125  126 1   
   130  125  129 1   
   131  125  130 1   
   132  126  131 1   
   133  132  133 1   
   134  132  137 1   
   135  133  134 1   
   136  133  136 1   
   137  133  138 1   
   138  134  135 2   
   139  134  142 1   
   140  136  139 1   
   141  136  140 1   
   142  136  141 1   
   143  142  143 1   
   144  142  147 1   
   145  143  144 1   
   146  143  146 1   
   147  143  148 1   
   148  144  145 2   
   149  144  152 1   
   150  146  149 1   
   151  146  150 1   
   152  146  151 1   
   153  152  153 1   
   154  152  161 1   
   155  153  154 1   
   156  153  156 1   
   157  153  162 1   
   158  154  155 2   
   159  154  167 1   
   160  156  157 1   
   161  156  163 1   
   162  156  164 1   
   163  157  158 1   
   164  157  165 1   
   165  157  166 1   
   166  158  159 1   
   167  158  160 1   
   168  167  168 1   
   169  167  172 1   
   170  168  169 1   
   171  168  170 1   
   172  168  171 1   
   173  174  175 1   
   174  174  176 1   
   175  177  178 1   
   176  177  179 1   
@<TRIPOS>SUBSTRUCTURE
     1 MOL         1 TEMP              0 ****  ****    0 ROOT
