@<TRIPOS>MOLECULE
MOL
  201   193     1     0     0
SMALL
resp


@<TRIPOS>ATOM
      1 C1        -11.8820   -4.4230   -4.5380 c3        1 MOL     -0.379237
      2 C2        -11.2560   -3.7830   -3.2530 c         1 MOL      0.705593
      3 O1        -11.9370   -2.9860   -2.6030 o         1 MOL     -0.577204
      4 H1        -12.7900   -4.9630   -4.2690 hc        1 MOL      0.096947
      5 H2        -12.1250   -3.6380   -5.2540 hc        1 MOL      0.096947
      6 H3        -11.1680   -5.1150   -4.9850 hc        1 MOL      0.096947
      7 N1         -9.9930   -4.0860   -2.9800 n         1 MOL     -0.599246
      8 C3         -9.1750   -3.5870   -1.8690 c3        1 MOL      0.341017
      9 C4         -7.6790   -3.1460   -2.1140 c         1 MOL      0.264464
     10 O2         -7.0660   -3.4840   -3.1270 o         1 MOL     -0.495056
     11 C5         -9.2110   -4.4280   -0.5820 c3        1 MOL     -0.024766
     12 C6         -9.1330   -5.9080   -0.7960 c         1 MOL      0.658764
     13 O3         -8.0610   -6.5590   -0.7000 o         1 MOL     -0.617243
     14 O4        -10.1710   -6.4400   -1.0910 o         1 MOL     -0.617243
     15 H4         -9.5000   -4.6520   -3.6500 hn        1 MOL      0.326953
     16 H5         -9.6590   -2.6780   -1.4980 h1        1 MOL     -0.063825
     17 H6        -10.2460   -4.3150   -0.2520 hc        1 MOL     -0.008323
     18 H7         -8.4710   -4.1540    0.1790 hc        1 MOL     -0.008323
     19 N2         -7.1150   -2.3460   -1.1960 n         1 MOL     -0.249814
     20 C7         -5.8830   -1.5560   -1.2110 c3        1 MOL      0.232822
     21 C8         -4.9460   -2.0250   -0.0350 c         1 MOL      0.496212
     22 O5         -5.4320   -2.8270    0.7940 o         1 MOL     -0.484922
     23 C9         -6.2350   -0.0540   -1.0370 c3        1 MOL     -0.269382
     24 C10        -5.5980    0.7770   -2.1750 c3        1 MOL      0.016150
     25 C11        -5.7150    2.2440   -1.8980 c3        1 MOL      0.151003
     26 C12        -7.1080    2.8770   -1.7610 c3        1 MOL     -0.061282
     27 N3         -7.0480    4.2920   -1.5150 n4        1 MOL     -0.300474
     28 H8         -7.6560   -2.1010   -0.3730 hn        1 MOL      0.202310
     29 H9         -5.2700   -1.7100   -2.1080 h1        1 MOL      0.013631
     30 H10        -5.8290    0.1890   -0.0550 hc        1 MOL      0.062550
     31 H11        -7.3050    0.1120   -1.0020 hc        1 MOL      0.062550
     32 H12        -6.1980    0.6360   -3.0780 hc        1 MOL      0.033283
     33 H13        -4.5730    0.4400   -2.2970 hc        1 MOL      0.033283
     34 H14        -5.2070    2.8240   -2.6780 hc        1 MOL     -0.043590
     35 H15        -5.1050    2.5620   -1.0490 hc        1 MOL     -0.043590
     36 H16        -7.6020    2.3420   -0.9480 hx        1 MOL      0.103373
     37 H17        -7.6410    2.6600   -2.6920 hx        1 MOL      0.103373
     38 H18        -6.8910    4.8830   -2.3210 hn        1 MOL      0.286686
     39 H19        -7.8900    4.6040   -1.0630 hn        1 MOL      0.286686
     40 H20        -6.3650    4.4910   -0.7910 hn        1 MOL      0.286686
     41 N4         -3.6670   -1.5200   -0.0740 n         1 MOL     -0.533988
     42 C13        -2.6090   -1.7770    0.8900 c3        1 MOL      0.246676
     43 C14        -1.9430   -0.5250    1.2920 c         1 MOL      0.320141
     44 O6         -1.2160    0.1210    0.5940 o         1 MOL     -0.480880
     45 C15        -1.5430   -2.7360    0.2930 c3        1 MOL     -0.171932
     46 C16        -0.3620   -2.9240    1.2860 c         1 MOL      0.725677
     47 O7         -0.4820   -3.4640    2.4170 o         1 MOL     -0.743629
     48 O8          0.8050   -2.6910    0.8760 o         1 MOL     -0.743629
     49 H21        -3.4410   -0.9870   -0.8930 hn        1 MOL      0.283004
     50 H22        -2.9190   -2.3190    1.7770 h1        1 MOL      0.047859
     51 H23        -1.2520   -2.3570   -0.6920 hc        1 MOL      0.068039
     52 H24        -1.9410   -3.7280    0.1070 hc        1 MOL      0.068039
     53 N5         -1.9210   -0.3600    2.6330 n         1 MOL     -0.166769
     54 C17        -2.8070   -0.8510    3.7260 c3        1 MOL     -0.316595
     55 C18        -3.2660    0.1770    4.7550 c         1 MOL      0.699782
     56 O9         -3.8460   -0.2380    5.7360 o         1 MOL     -0.555590
     57 H25        -1.2500    0.3490    2.8680 hn        1 MOL      0.257014
     58 H26        -2.1700   -1.6080    4.1890 h1        1 MOL      0.118580
     59 H27        -3.6970   -1.2880    3.2670 h1        1 MOL      0.118580
     60 N6         -2.9420    1.4040    4.4930 n         1 MOL     -0.436603
     61 C19        -3.2620    2.5390    5.3940 c3        1 MOL     -0.057370
     62 C20        -3.3180    3.9960    4.7640 c         1 MOL      0.560296
     63 O10        -4.0510    4.8640    5.1980 o         1 MOL     -0.555137
     64 C21        -2.2910    2.6510    6.6190 c3        1 MOL     -0.120744
     65 C22        -0.8110    2.3590    6.2890 c         1 MOL      0.700665
     66 O11        -0.3720    2.5990    5.1460 o         1 MOL     -0.703572
     67 O12        -0.0630    1.8490    7.1790 o         1 MOL     -0.703572
     68 H28        -2.6890    1.6300    3.5410 hn        1 MOL      0.165708
     69 H29        -4.2470    2.4080    5.8370 h1        1 MOL      0.078673
     70 H30        -2.6360    1.9940    7.4140 hc        1 MOL      0.042334
     71 H31        -2.4530    3.6770    6.9720 hc        1 MOL      0.042334
     72 N7         -2.6600    4.1960    3.6300 n         1 MOL     -0.296911
     73 C23        -2.7030    5.5180    2.9590 c3        1 MOL     -0.174256
     74 C24        -1.8440    5.6490    1.7450 c         1 MOL      0.644356
     75 O13        -0.8120    5.0150    1.6100 o         1 MOL     -0.474993
     76 H32        -2.0090    3.4910    3.3230 hn        1 MOL      0.270329
     77 H33        -2.4910    6.3420    3.6360 h1        1 MOL      0.100582
     78 H34        -3.7320    5.6060    2.6130 h1        1 MOL      0.100582
     79 N8         -2.2950    6.4770    0.7830 n         1 MOL     -0.548116
     80 C25        -1.8410    6.4820   -0.6180 c3        1 MOL     -0.010916
     81 C26        -1.8070    5.1270   -1.3140 c         1 MOL      0.298757
     82 O14        -2.4440    4.1680   -0.8610 o         1 MOL     -0.416877
     83 C27        -2.7390    7.4260   -1.3990 c3        1 MOL      0.402776
     84 C28        -4.3130    7.1830   -1.3090 c3        1 MOL     -0.421653
     85 O15        -2.5700    8.8520   -1.0880 oh        1 MOL     -0.585081
     86 H35        -3.1010    7.0510    0.9940 hn        1 MOL      0.300362
     87 H36        -0.8270    6.8710   -0.6540 h1        1 MOL      0.075211
     88 H37        -2.4110    7.3600   -2.4320 h1        1 MOL     -0.010257
     89 H38        -1.6800    9.0380   -1.4330 ho        1 MOL      0.364748
     90 H39        -4.6740    6.1550   -1.2780 hc        1 MOL      0.114844
     91 H40        -4.7050    7.6530   -0.4040 hc        1 MOL      0.114844
     92 H41        -4.7310    7.6750   -2.1830 hc        1 MOL      0.114844
     93 N9         -0.9800    4.9640   -2.3810 n         1 MOL     -0.234711
     94 C29        -0.5920    3.6150   -2.8590 c3        1 MOL     -0.074027
     95 C30         0.5970    2.9030   -2.0170 c         1 MOL      0.545892
     96 O16         0.5290    1.6880   -1.8170 o         1 MOL     -0.475493
     97 C31        -0.3660    3.5490   -4.3520 c3        1 MOL      0.196415
     98 C32        -1.3500    4.3820   -5.1990 c3        1 MOL     -0.004126
     99 C33        -0.1510    2.1170   -4.9210 c3        1 MOL     -0.407755
    100 C34        -2.8570    3.9150   -5.0230 c3        1 MOL     -0.006091
    101 H42        -0.3950    5.7200   -2.6990 hn        1 MOL      0.215479
    102 H43        -1.5030    3.0380   -2.6770 h1        1 MOL      0.064814
    103 H44         0.5850    4.0480   -4.5180 hc        1 MOL     -0.041752
    104 H45        -1.0640    4.4120   -6.2520 hc        1 MOL     -0.005528
    105 H46        -1.4250    5.3840   -4.7780 hc        1 MOL     -0.005528
    106 H47         0.1150    2.2690   -5.9680 hc        1 MOL      0.117394
    107 H48         0.6050    1.5150   -4.4140 hc        1 MOL      0.117394
    108 H49        -1.1190    1.6240   -5.0540 hc        1 MOL      0.117394
    109 H50        -3.2870    4.3900   -4.1340 hc        1 MOL     -0.003888
    110 H51        -3.3990    4.3150   -5.8800 hc        1 MOL     -0.003888
    111 H52        -2.9580    2.8250   -5.0030 hc        1 MOL     -0.003888
    112 N10         1.6060    3.6900   -1.5630 n         1 MOL     -0.386972
    113 C35         2.7660    3.2190   -0.6700 c3        1 MOL     -0.162076
    114 C36         4.1410    3.7430   -1.1930 c         1 MOL      0.630293
    115 O17         4.1930    4.8490   -1.7370 o         1 MOL     -0.546087
    116 C37         2.4830    3.4790    0.8430 c3        1 MOL      0.436681
    117 C38         2.6250    4.9530    1.0760 c3        1 MOL     -0.372135
    118 O18         1.1240    3.0860    1.1730 oh        1 MOL     -0.645560
    119 H53         1.7170    4.6760   -1.7490 hn        1 MOL      0.245253
    120 H54         2.8050    2.1350   -0.7250 h1        1 MOL      0.099913
    121 H55         3.1890    2.9970    1.5140 h1        1 MOL      0.023882
    122 H56         0.4660    3.6490    0.7600 ho        1 MOL      0.435934
    123 H57         3.6620    5.2630    0.9940 hc        1 MOL      0.089760
    124 H58         1.9070    5.4930    0.4540 hc        1 MOL      0.089760
    125 H59         2.3160    5.2850    2.0690 hc        1 MOL      0.089760
    126 N11         5.1990    2.9250   -1.0810 n         1 MOL     -0.506419
    127 C39         6.4410    3.0980   -1.8290 c3        1 MOL      0.025650
    128 C40         6.9790    1.8320   -2.4740 c         1 MOL      0.555193
    129 O19         7.1190    1.9030   -3.7110 o         1 MOL     -0.553188
    130 C41         7.5120    3.7310   -0.9330 c3        1 MOL      0.204827
    131 C42         8.9450    3.8080   -1.5590 c3        1 MOL     -0.476132
    132 O20         7.7550    2.8110    0.1370 oh        1 MOL     -0.644957
    133 H60         5.1000    2.0640   -0.5560 hn        1 MOL      0.256245
    134 H61         6.2930    3.8190   -2.6310 h1        1 MOL      0.100227
    135 H62         7.1800    4.6540   -0.4790 h1        1 MOL      0.085554
    136 H63         8.3710    3.2880    0.6970 ho        1 MOL      0.416404
    137 H64         9.2220    2.7970   -1.8350 hc        1 MOL      0.128796
    138 H65         9.1040    4.4050   -2.4580 hc        1 MOL      0.128796
    139 H66         9.5950    4.2270   -0.7900 hc        1 MOL      0.128796
    140 N12         7.2260    0.8160   -1.7040 n         1 MOL     -0.243824
    141 C43         7.3600   -0.5330   -2.1790 c3        1 MOL     -0.108224
    142 C44         6.6210   -1.4150   -1.2130 c         1 MOL      0.553233
    143 O21         6.5360   -1.1440   -0.0190 o         1 MOL     -0.547323
    144 C45         8.8710   -0.9340   -2.2810 c3        1 MOL     -0.209158
    145 C46         9.7100   -1.0370   -1.0110 c3        1 MOL     -0.112543
    146 C47        11.1620   -1.3250   -1.4940 c3        1 MOL     -0.046604
    147 C48        12.1300   -1.3380   -0.3050 c3        1 MOL      0.088182
    148 N13        13.4290   -1.7580   -0.8320 n4        1 MOL     -0.159854
    149 H67         7.2070    0.9490   -0.7020 hn        1 MOL      0.287488
    150 H68         6.8510   -0.7280   -3.1160 h1        1 MOL      0.100417
    151 H69         9.3680   -0.1850   -2.9070 hc        1 MOL      0.098088
    152 H70         8.8610   -1.9180   -2.7420 hc        1 MOL      0.098088
    153 H71         9.2760   -1.9350   -0.5700 hc        1 MOL      0.083357
    154 H72         9.5810   -0.1570   -0.3800 hc        1 MOL      0.083357
    155 H73        11.5120   -0.5810   -2.2010 hc        1 MOL      0.044181
    156 H74        11.3020   -2.2210   -2.0900 hc        1 MOL      0.044181
    157 H75        11.7180   -1.9510    0.4980 hx        1 MOL      0.047097
    158 H76        12.3390   -0.3970    0.1870 hx        1 MOL      0.047097
    159 H77        13.5020   -2.7070   -1.1540 hn        1 MOL      0.188104
    160 H78        13.7110   -1.1010   -1.5470 hn        1 MOL      0.188104
    161 H79        14.1270   -1.7300   -0.1060 hn        1 MOL      0.188104
    162 N14         6.0710   -2.4970   -1.7960 n         1 MOL     -0.602384
    163 C49         5.3510   -3.4990   -1.0650 c3        1 MOL      0.431608
    164 C50         4.0680   -3.0720   -0.4540 c         1 MOL      0.278171
    165 O22         3.8000   -3.5000    0.6820 o         1 MOL     -0.608635
    166 C51         5.2640   -4.7460   -1.8760 c3        1 MOL      0.104951
    167 C52         4.7470   -5.9160   -1.1190 c3        1 MOL     -0.471292
    168 C53         5.0030   -7.2280   -1.8560 c         1 MOL      0.802099
    169 O23         5.0300   -8.2410   -1.1470 o         1 MOL     -0.712265
    170 O24         5.1540   -7.3740   -3.0930 o         1 MOL     -0.712265
    171 H80         6.3800   -2.7570   -2.7260 hn        1 MOL      0.315332
    172 H81         5.9860   -3.7970   -0.2290 h1        1 MOL     -0.001057
    173 H82         6.2470   -4.9060   -2.3290 hc        1 MOL     -0.014757
    174 H83         4.6150   -4.5220   -2.7210 hc        1 MOL     -0.014757
    175 H84         3.6560   -5.9470   -1.0240 hc        1 MOL      0.099064
    176 H85         5.2250   -5.8700   -0.1370 hc        1 MOL      0.099064
    177 N15         3.1030   -2.3560   -1.0540 n         1 MOL     -0.251315
    178 C54         2.9520   -2.1240   -2.5720 c3        1 MOL      0.028782
    179 H86         2.0170   -2.5670   -2.9160 h1        1 MOL      0.043801
    180 H87         2.9430   -1.0530   -2.7770 h1        1 MOL      0.043801
    181 H88         3.7880   -2.5880   -3.0960 h1        1 MOL      0.043801
    182 H89         2.4130   -2.0490   -0.3880 hn        1 MOL      0.283408
    183 Ca1         2.1310   -3.9840    2.6930 Ca        1 MOL      1.756016
    184 O25         3.9580   -5.7720    2.9960 oh        1 MOL     -0.827026
    185 H90         4.7600   -5.8860    3.4930 ho        1 MOL      0.415988
    186 H91         3.9790   -6.4620    2.3360 ho        1 MOL      0.415988
    187 O26         4.3540   -2.5680    3.2970 oh        1 MOL     -0.827026
    188 H92         5.1780   -2.3980    2.8390 ho        1 MOL      0.415988
    189 H93         4.2540   -1.8230    3.8970 ho        1 MOL      0.415988
    190 O27         1.7860   -1.3330    3.4270 oh        1 MOL     -0.827026
    191 H94         1.0790   -0.6970    3.3330 ho        1 MOL      0.415988
    192 H95         2.3570   -0.9630    4.1060 ho        1 MOL      0.415988
    193 O28         0.8560   -6.1250    3.6610 oh        1 MOL     -0.827026
    194 H96         1.2910   -6.9660    3.7950 ho        1 MOL      0.415988
    195 H97        -0.0380   -6.2630    3.9670 ho        1 MOL      0.415988
    196 O29         2.5010   -3.7290    5.3230 oh        1 MOL     -0.827026
    197 H98         1.8690   -3.3640    5.9380 ho        1 MOL      0.415988
    198 H99         2.9910   -4.3720    5.8330 ho        1 MOL      0.415988
    199 O30         1.0080   -5.9340    0.6920 oh        1 MOL     -0.827026
    200 H100        0.4070   -6.5730    1.0870 ho        1 MOL      0.415988
    201 H101        1.3550   -6.3760   -0.0860 ho        1 MOL      0.415988
@<TRIPOS>BOND
     1    1    2 1   
     2    1    4 1   
     3    1    5 1   
     4    1    6 1   
     5    2    3 2   
     6    2    7 1   
     7    7    8 1   
     8    7   15 1   
     9    8    9 1   
    10    8   11 1   
    11    8   16 1   
    12    9   10 2   
    13    9   19 1   
    14   11   12 1   
    15   11   17 1   
    16   11   18 1   
    17   12   13 1   
    18   12   14 1   
    19   19   20 1   
    20   19   28 1   
    21   20   21 1   
    22   20   23 1   
    23   20   29 1   
    24   21   22 2   
    25   21   41 1   
    26   23   24 1   
    27   23   30 1   
    28   23   31 1   
    29   24   25 1   
    30   24   32 1   
    31   24   33 1   
    32   25   26 1   
    33   25   34 1   
    34   25   35 1   
    35   26   27 1   
    36   26   36 1   
    37   26   37 1   
    38   27   38 1   
    39   27   39 1   
    40   27   40 1   
    41   41   42 1   
    42   41   49 1   
    43   42   43 1   
    44   42   45 1   
    45   42   50 1   
    46   43   44 2   
    47   43   53 1   
    48   45   46 1   
    49   45   51 1   
    50   45   52 1   
    51   46   47 1   
    52   46   48 1   
    53   53   54 1   
    54   53   57 1   
    55   54   55 1   
    56   54   58 1   
    57   54   59 1   
    58   55   56 2   
    59   55   60 1   
    60   60   61 1   
    61   60   68 1   
    62   61   62 1   
    63   61   64 1   
    64   61   69 1   
    65   62   63 2   
    66   62   72 1   
    67   64   65 1   
    68   64   70 1   
    69   64   71 1   
    70   65   66 1   
    71   65   67 1   
    72   72   73 1   
    73   72   76 1   
    74   73   74 1   
    75   73   77 1   
    76   73   78 1   
    77   74   75 2   
    78   74   79 1   
    79   79   80 1   
    80   79   86 1   
    81   80   81 1   
    82   80   83 1   
    83   80   87 1   
    84   81   82 2   
    85   81   93 1   
    86   83   84 1   
    87   83   85 1   
    88   83   88 1   
    89   84   90 1   
    90   84   91 1   
    91   84   92 1   
    92   85   89 1   
    93   93   94 1   
    94   93  101 1   
    95   94   95 1   
    96   94   97 1   
    97   94  102 1   
    98   95   96 2   
    99   95  112 1   
   100   97   98 1   
   101   97   99 1   
   102   97  103 1   
   103   98  100 1   
   104   98  104 1   
   105   98  105 1   
   106   99  106 1   
   107   99  107 1   
   108   99  108 1   
   109  100  109 1   
   110  100  110 1   
   111  100  111 1   
   112  112  113 1   
   113  112  119 1   
   114  113  114 1   
   115  113  116 1   
   116  113  120 1   
   117  114  115 2   
   118  114  126 1   
   119  116  117 1   
   120  116  118 1   
   121  116  121 1   
   122  117  123 1   
   123  117  124 1   
   124  117  125 1   
   125  118  122 1   
   126  126  127 1   
   127  126  133 1   
   128  127  128 1   
   129  127  130 1   
   130  127  134 1   
   131  128  129 2   
   132  128  140 1   
   133  130  131 1   
   134  130  132 1   
   135  130  135 1   
   136  131  137 1   
   137  131  138 1   
   138  131  139 1   
   139  132  136 1   
   140  140  141 1   
   141  140  149 1   
   142  141  142 1   
   143  141  144 1   
   144  141  150 1   
   145  142  143 2   
   146  142  162 1   
   147  144  145 1   
   148  144  151 1   
   149  144  152 1   
   150  145  146 1   
   151  145  153 1   
   152  145  154 1   
   153  146  147 1   
   154  146  155 1   
   155  146  156 1   
   156  147  148 1   
   157  147  157 1   
   158  147  158 1   
   159  148  159 1   
   160  148  160 1   
   161  148  161 1   
   162  162  163 1   
   163  162  171 1   
   164  163  164 1   
   165  163  166 1   
   166  163  172 1   
   167  164  165 2   
   168  164  177 1   
   169  166  167 1   
   170  166  173 1   
   171  166  174 1   
   172  167  168 1   
   173  167  175 1   
   174  167  176 1   
   175  168  169 1   
   176  168  170 1   
   177  177  178 1   
   178  177  182 1   
   179  178  179 1   
   180  178  180 1   
   181  178  181 1   
   182  184  185 1   
   183  184  186 1   
   184  187  188 1   
   185  187  189 1   
   186  190  191 1   
   187  190  192 1   
   188  193  194 1   
   189  193  195 1   
   190  196  197 1   
   191  196  198 1   
   192  199  200 1   
   193  199  201 1   
@<TRIPOS>SUBSTRUCTURE
     1 MOL         1 TEMP              0 ****  ****    0 ROOT
