@<TRIPOS>MOLECULE
MOL
  191   184     1     0     0
SMALL
resp


@<TRIPOS>ATOM
      1 C1         -6.3780   -2.4930    2.4400 c3        1 MOL     -0.467703
      2 C2         -7.0820   -2.0950    1.1630 c         1 MOL      0.619179
      3 O1         -6.4610   -1.6860    0.1310 o         1 MOL     -0.448262
      4 H1         -6.9090   -2.0710    3.2940 hc        1 MOL      0.129872
      5 H2         -6.3630   -3.5800    2.5240 hc        1 MOL      0.129872
      6 H3         -5.3560   -2.1160    2.4260 hc        1 MOL      0.129872
      7 N1         -8.4490   -2.1700    1.1470 n         1 MOL     -0.587035
      8 C3         -9.3080   -1.7830    0.0630 c3        1 MOL      0.313320
      9 C4         -9.0020   -0.3760   -0.4470 c         1 MOL      0.079355
     10 O2         -8.7750   -0.0970   -1.6420 o         1 MOL     -0.436350
     11 C5         -9.4760   -2.8890   -1.0140 c3        1 MOL     -0.314681
     12 C6        -10.6530   -2.7330   -1.9950 c         1 MOL      0.738862
     13 O3        -11.5280   -1.8980   -1.7840 o         1 MOL     -0.689465
     14 O4        -10.8890   -3.6580   -2.7290 o         1 MOL     -0.689465
     15 H4         -8.9160   -2.0790    2.0360 hn        1 MOL      0.308397
     16 H5        -10.2700   -1.5780    0.5260 h1        1 MOL     -0.001976
     17 H6         -9.6280   -3.8510   -0.5140 hc        1 MOL      0.099267
     18 H7         -8.5320   -2.9740   -1.5440 hc        1 MOL      0.099267
     19 N2         -8.8230    0.5510    0.4440 n         1 MOL     -0.204199
     20 C7         -8.5090    1.9670    0.2830 c3        1 MOL      0.064152
     21 C8         -7.0600    2.2680    0.6020 c         1 MOL      0.676072
     22 O5         -6.7880    3.4000    0.9960 o         1 MOL     -0.593951
     23 C9         -9.4970    2.8220    1.0380 c3        1 MOL     -0.216411
     24 C10       -10.9320    2.5430    0.5830 c3        1 MOL      0.373625
     25 C11       -11.9220    3.6020    1.1690 c3        1 MOL     -0.235488
     26 C12       -13.3610    3.1120    1.0350 c3        1 MOL     -0.001437
     27 N3        -13.6850    2.7710   -0.3670 n4        1 MOL     -0.236163
     28 H8         -8.8730    0.2190    1.4010 hn        1 MOL      0.197841
     29 H9         -8.6600    2.3090   -0.7340 h1        1 MOL      0.101779
     30 H10        -9.3480    3.8670    0.7550 hc        1 MOL      0.048191
     31 H11        -9.5090    2.6740    2.1130 hc        1 MOL      0.048191
     32 H12       -11.2140    1.5470    0.9360 hc        1 MOL     -0.048764
     33 H13       -10.9630    2.6360   -0.4970 hc        1 MOL     -0.048764
     34 H14       -11.7530    4.5120    0.5840 hc        1 MOL      0.078686
     35 H15       -11.7340    3.7820    2.2320 hc        1 MOL      0.078686
     36 H16       -13.9360    4.0060    1.2950 hx        1 MOL      0.092288
     37 H17       -13.6410    2.3880    1.7870 hx        1 MOL      0.092288
     38 H18       -13.0760    2.0330   -0.6890 hn        1 MOL      0.258174
     39 H19       -14.6560    2.5310   -0.5050 hn        1 MOL      0.258174
     40 H20       -13.6050    3.5270   -1.0310 hn        1 MOL      0.258174
     41 N4         -6.0420    1.3280    0.4430 n         1 MOL     -0.782562
     42 C13        -4.6340    1.5980    0.6160 c3        1 MOL      0.275449
     43 C14        -4.1010    2.2720   -0.6800 c         1 MOL      0.590481
     44 O6         -4.2900    1.8230   -1.7770 o         1 MOL     -0.465738
     45 C15        -3.7420    0.3430    0.8650 c3        1 MOL     -0.025271
     46 C16        -2.2610    0.6490    1.1360 c         1 MOL      0.564677
     47 O7         -1.9270    0.8410    2.3130 o         1 MOL     -0.708224
     48 O8         -1.4190    0.8980    0.1790 o         1 MOL     -0.708224
     49 H21        -6.3350    0.4350    0.0760 hn        1 MOL      0.392797
     50 H22        -4.4940    2.2320    1.4960 h1        1 MOL      0.023425
     51 H23        -3.8670   -0.2040   -0.0610 hc        1 MOL     -0.014379
     52 H24        -4.0660   -0.2390    1.7320 hc        1 MOL     -0.014379
     53 N5         -3.3300    3.3360   -0.4900 n         1 MOL     -0.401801
     54 C17        -2.8470    4.1740   -1.6510 c3        1 MOL     -0.286193
     55 C18        -1.6610    3.5910   -2.4450 c         1 MOL      0.563895
     56 O9         -1.2880    4.1370   -3.4720 o         1 MOL     -0.555159
     57 H25        -3.0170    3.5960    0.4420 hn        1 MOL      0.262788
     58 H26        -2.4860    5.1560   -1.3420 h1        1 MOL      0.158274
     59 H27        -3.7560    4.1940   -2.2490 h1        1 MOL      0.158274
     60 N6         -1.1290    2.4080   -2.0680 n         1 MOL     -0.073045
     61 C19        -0.2550    1.5650   -2.9490 c3        1 MOL     -0.028390
     62 C20        -0.8150    0.1030   -2.9220 c         1 MOL      0.283956
     63 O10        -0.1430   -0.8380   -3.3010 o         1 MOL     -0.412107
     64 C21         1.2170    1.6330   -2.5360 c3        1 MOL     -0.123489
     65 C22         1.8400    3.0570   -2.5170 c         1 MOL      0.586562
     66 N7          2.3880    3.5940   -3.5430 n         1 MOL     -0.648565
     67 O11         1.6360    3.8210   -1.5640 o         1 MOL     -0.602070
     68 H28        -1.3620    2.0000   -1.1800 hn        1 MOL      0.001760
     69 H29        -0.3520    1.9090   -3.9770 h1        1 MOL      0.105610
     70 H30         1.8640    1.0530   -3.1950 hc        1 MOL      0.050329
     71 H31         1.3500    1.1070   -1.5900 hc        1 MOL      0.050329
     72 H32         2.6580    3.0780   -4.3670 hn        1 MOL      0.359512
     73 H33         2.7080    4.5400   -3.3880 hn        1 MOL      0.359512
     74 N8         -2.1150   -0.0780   -2.5800 n         1 MOL     -0.012008
     75 C23        -2.7940   -1.3700   -2.6060 c3        1 MOL     -0.326237
     76 C24        -2.3010   -2.4210   -1.6180 c         1 MOL      0.578583
     77 O12        -2.7010   -3.5910   -1.7570 o         1 MOL     -0.530307
     78 H34        -2.6460    0.7330   -2.3070 hn        1 MOL      0.056125
     79 H35        -2.7200   -1.7240   -3.6420 h1        1 MOL      0.161002
     80 H36        -3.8190   -1.1970   -2.2880 h1        1 MOL      0.161002
     81 N9         -1.5440   -1.9920   -0.6690 n         1 MOL     -0.612230
     82 C25        -0.7660   -2.7930    0.2160 c3        1 MOL      0.179748
     83 C26         0.5830   -2.1380    0.5070 c         1 MOL      0.275034
     84 O13         0.6780   -0.8990    0.7540 o         1 MOL     -0.596135
     85 C27        -1.6180   -3.2760    1.3710 c3        1 MOL     -0.182914
     86 C28        -0.8320   -3.6740    2.6060 ca        1 MOL     -0.131956
     87 C29        -0.2710   -4.9780    2.6050 ca        1 MOL     -0.029555
     88 C30        -0.7620   -2.8850    3.7170 ca        1 MOL     -0.029555
     89 C31         0.4160   -5.4150    3.7200 ca        1 MOL     -0.234574
     90 C32        -0.0940   -3.3260    4.8450 ca        1 MOL     -0.234574
     91 C33         0.4870   -4.5900    4.9140 ca        1 MOL      0.238782
     92 O14         1.2030   -5.0530    5.9530 oh        1 MOL     -0.370349
     93 H37        -1.3680   -1.0080   -0.5640 hn        1 MOL      0.545220
     94 H38        -0.4500   -3.7010   -0.3100 h1        1 MOL      0.021895
     95 H39        -2.3120   -4.0020    0.9530 hc        1 MOL      0.135936
     96 H40        -2.2300   -2.3910    1.5430 hc        1 MOL      0.135936
     97 H41        -0.3120   -5.6030    1.7250 ha        1 MOL      0.105518
     98 H42        -1.3610   -1.9830    3.7890 ha        1 MOL      0.105518
     99 H43         0.9660   -6.3460    3.6730 ha        1 MOL      0.129372
    100 H44        -0.2650   -2.7800    5.7710 ha        1 MOL      0.129372
    101 H45         1.1130   -4.4380    6.6840 ho        1 MOL      0.317998
    102 N10         1.6380   -2.8700    0.2120 n         1 MOL     -0.020123
    103 C34         2.9860   -2.3610    0.1370 c3        1 MOL     -0.095347
    104 C35         3.2970   -1.6520   -1.1540 c         1 MOL      0.340960
    105 O15         3.9550   -0.6000   -1.0880 o         1 MOL     -0.562217
    106 C36         3.9760   -3.5480    0.4210 c3        1 MOL      0.080185
    107 C37         3.7500   -4.5750    1.5480 c3        1 MOL     -0.224935
    108 C38         5.3440   -2.8930    0.5990 c3        1 MOL     -0.658660
    109 C39         3.4140   -3.8950    2.8390 c3        1 MOL      0.290925
    110 H46         1.5290   -3.8720    0.1650 hn        1 MOL      0.190607
    111 H47         3.1600   -1.7000    0.9800 h1        1 MOL      0.184697
    112 H48         3.9920   -4.1250   -0.5050 hc        1 MOL     -0.000853
    113 H49         4.6410   -5.2020    1.6570 hc        1 MOL      0.088845
    114 H50         2.8190   -5.1230    1.4220 hc        1 MOL      0.088845
    115 H51         5.6600   -2.3210   -0.2740 hc        1 MOL      0.198231
    116 H52         5.3210   -2.3400    1.5380 hc        1 MOL      0.198231
    117 H53         6.0110   -3.7560    0.6110 hc        1 MOL      0.198231
    118 H54         2.4540   -3.4110    2.7150 hc        1 MOL     -0.083937
    119 H55         3.2750   -4.5900    3.6730 hc        1 MOL     -0.083937
    120 H56         4.1440   -3.1610    3.1850 hc        1 MOL     -0.083937
    121 N11         2.8510   -2.1180   -2.3210 n         1 MOL     -0.146981
    122 C40         3.1750   -1.6470   -3.7200 c3        1 MOL      0.056473
    123 C41         4.6440   -1.5370   -4.0270 c         1 MOL      0.227972
    124 O16         5.0730   -0.7240   -4.8790 o         1 MOL     -0.465891
    125 C42         2.6940   -2.6840   -4.7230 c3        1 MOL      0.294732
    126 O17         1.2820   -2.9150   -4.5760 oh        1 MOL     -0.610186
    127 H57         2.1540   -2.8550   -2.2760 hn        1 MOL      0.126678
    128 H58         2.7440   -0.6680   -3.9460 h1        1 MOL      0.062350
    129 H59         3.2540   -3.6040   -4.6040 h1        1 MOL      0.026341
    130 H60         2.8200   -2.2440   -5.7140 h1        1 MOL      0.026341
    131 H61         0.8070   -2.1460   -4.2540 ho        1 MOL      0.348502
    132 N12         5.4950   -2.3630   -3.3760 n         1 MOL     -0.307519
    133 C43         7.0080   -2.2410   -3.4590 c3        1 MOL      0.131423
    134 C44         7.6230   -0.8650   -3.0820 c         1 MOL      0.477224
    135 O18         8.8170   -0.6410   -3.3030 o         1 MOL     -0.517293
    136 C45         7.4930   -2.9410   -4.7890 c3        1 MOL     -0.486474
    137 H62         5.0370   -3.1060   -2.8490 hn        1 MOL      0.244624
    138 H63         7.3780   -2.8750   -2.6610 h1        1 MOL      0.077881
    139 H64         7.0830   -2.3820   -5.6280 hc        1 MOL      0.148786
    140 H65         8.5780   -2.9600   -4.8130 hc        1 MOL      0.148786
    141 H66         7.1210   -3.9620   -4.8830 hc        1 MOL      0.148786
    142 N13         6.8840    0.0530   -2.3970 n         1 MOL     -0.400517
    143 C46         7.4690    1.2300   -1.8320 c3        1 MOL      0.221902
    144 C47         7.9940    1.0680   -0.3840 c         1 MOL      0.437305
    145 O19         7.4440    0.2340    0.2910 o         1 MOL     -0.508966
    146 C48         6.3860    2.3620   -1.7470 c3        1 MOL     -0.211030
    147 H67         5.8870   -0.0840   -2.3750 hn        1 MOL      0.329812
    148 H68         8.2970    1.5720   -2.4530 h1        1 MOL      0.029070
    149 H69         5.6340    2.0820   -1.0080 hc        1 MOL      0.053706
    150 H70         6.7600    3.3440   -1.4270 hc        1 MOL      0.053706
    151 H71         5.9060    2.4470   -2.7170 hc        1 MOL      0.053706
    152 N14         8.9490    1.8580    0.0670 n         1 MOL     -0.485453
    153 C49         9.4460    1.9060    1.5010 c3        1 MOL     -0.005915
    154 C50         9.8420    0.5070    2.0140 c         1 MOL      0.406278
    155 O20         9.6370    0.2390    3.2260 o         1 MOL     -0.492343
    156 C51         8.3550    2.6270    2.3600 c3        1 MOL      0.069618
    157 C52         7.9550    4.0590    1.9540 c3        1 MOL     -0.166880
    158 C53         9.1220    5.0440    2.2620 c         1 MOL      0.673727
    159 O21         9.8240    5.4130    1.3000 o         1 MOL     -0.688576
    160 O22         9.1770    5.5510    3.4470 o         1 MOL     -0.688576
    161 H72         9.4850    2.4050   -0.5880 hn        1 MOL      0.299190
    162 H73        10.3970    2.4200    1.5900 h1        1 MOL      0.109832
    163 H74         8.5700    2.7050    3.4230 hc        1 MOL      0.011871
    164 H75         7.4560    2.0140    2.3850 hc        1 MOL      0.011871
    165 H76         7.1150    4.3790    2.5540 hc        1 MOL      0.016341
    166 H77         7.6450    4.1830    0.9130 hc        1 MOL      0.016341
    167 N15        10.2630   -0.4140    1.0760 n         1 MOL     -0.258280
    168 C54        10.6980   -1.8000    1.4350 c3        1 MOL     -0.127064
    169 H78        11.4260   -2.1530    0.7040 h1        1 MOL      0.076841
    170 H79        11.1520   -1.7940    2.4250 h1        1 MOL      0.076841
    171 H80         9.8330   -2.4630    1.4360 h1        1 MOL      0.076841
    172 H81        10.4280   -0.0460    0.1490 hn        1 MOL      0.233862
    173 Ca1         0.5780    1.3670    2.2100 Ca        1 MOL      1.744893
    174 O23        -0.7530    3.0920    3.6370 oh        1 MOL     -0.781207
    175 H82        -0.9280    3.2320    4.5690 ho        1 MOL      0.390064
    176 H83        -1.4690    3.5260    3.1840 ho        1 MOL      0.390064
    177 O24         0.6330    3.6850    0.8220 oh        1 MOL     -0.781207
    178 H84         0.2360    4.5270    1.0500 ho        1 MOL      0.390064
    179 H85         1.0430    3.8410   -0.0350 ho        1 MOL      0.390064
    180 O25         2.1810    2.9880    3.8530 oh        1 MOL     -0.781207
    181 H86         2.1330    3.8110    3.3750 ho        1 MOL      0.390064
    182 H87         2.1180    3.2420    4.7720 ho        1 MOL      0.390064
    183 O26         2.8070    1.4750    0.6000 oh        1 MOL     -0.781207
    184 H88         3.4420    2.1620    0.3740 ho        1 MOL      0.390064
    185 H89         3.1110    0.7070    0.1220 ho        1 MOL      0.390064
    186 O27         0.0650    0.0620    4.5740 oh        1 MOL     -0.781207
    187 H90         0.2750    0.5610    5.3710 ho        1 MOL      0.390064
    188 H91         0.2870   -0.8400    4.7950 ho        1 MOL      0.390064
    189 O28         2.6240    0.0790    3.3140 oh        1 MOL     -0.781207
    190 H92         3.5510   -0.0280    3.1040 ho        1 MOL      0.390064
    191 H93         2.4480   -0.6000    3.9660 ho        1 MOL      0.390064
@<TRIPOS>BOND
     1    1    2 1   
     2    1    4 1   
     3    1    5 1   
     4    1    6 1   
     5    2    3 2   
     6    2    7 1   
     7    7    8 1   
     8    7   15 1   
     9    8    9 1   
    10    8   11 1   
    11    8   16 1   
    12    9   10 2   
    13    9   19 1   
    14   11   12 1   
    15   11   17 1   
    16   11   18 1   
    17   12   13 1   
    18   12   14 1   
    19   19   20 1   
    20   19   28 1   
    21   20   21 1   
    22   20   23 1   
    23   20   29 1   
    24   21   22 2   
    25   21   41 1   
    26   23   24 1   
    27   23   30 1   
    28   23   31 1   
    29   24   25 1   
    30   24   32 1   
    31   24   33 1   
    32   25   26 1   
    33   25   34 1   
    34   25   35 1   
    35   26   27 1   
    36   26   36 1   
    37   26   37 1   
    38   27   38 1   
    39   27   39 1   
    40   27   40 1   
    41   41   42 1   
    42   41   49 1   
    43   42   43 1   
    44   42   45 1   
    45   42   50 1   
    46   43   44 2   
    47   43   53 1   
    48   45   46 1   
    49   45   51 1   
    50   45   52 1   
    51   46   47 1   
    52   46   48 1   
    53   53   54 1   
    54   53   57 1   
    55   54   55 1   
    56   54   58 1   
    57   54   59 1   
    58   55   56 2   
    59   55   60 1   
    60   60   61 1   
    61   60   68 1   
    62   61   62 1   
    63   61   64 1   
    64   61   69 1   
    65   62   63 2   
    66   62   74 1   
    67   64   65 1   
    68   64   70 1   
    69   64   71 1   
    70   65   66 1   
    71   65   67 2   
    72   66   72 1   
    73   66   73 1   
    74   74   75 1   
    75   74   78 1   
    76   75   76 1   
    77   75   79 1   
    78   75   80 1   
    79   76   77 2   
    80   76   81 1   
    81   81   82 1   
    82   81   93 1   
    83   82   83 1   
    84   82   85 1   
    85   82   94 1   
    86   83   84 2   
    87   83  102 1   
    88   85   86 1   
    89   85   95 1   
    90   85   96 1   
    91   86   87 ar  
    92   86   88 ar  
    93   87   89 ar  
    94   87   97 1   
    95   88   90 ar  
    96   88   98 1   
    97   89   91 ar  
    98   89   99 1   
    99   90   91 ar  
   100   90  100 1   
   101   91   92 1   
   102   92  101 1   
   103  102  103 1   
   104  102  110 1   
   105  103  104 1   
   106  103  106 1   
   107  103  111 1   
   108  104  105 2   
   109  104  121 1   
   110  106  107 1   
   111  106  108 1   
   112  106  112 1   
   113  107  109 1   
   114  107  113 1   
   115  107  114 1   
   116  108  115 1   
   117  108  116 1   
   118  108  117 1   
   119  109  118 1   
   120  109  119 1   
   121  109  120 1   
   122  121  122 1   
   123  121  127 1   
   124  122  123 1   
   125  122  125 1   
   126  122  128 1   
   127  123  124 2   
   128  123  132 1   
   129  125  126 1   
   130  125  129 1   
   131  125  130 1   
   132  126  131 1   
   133  132  133 1   
   134  132  137 1   
   135  133  134 1   
   136  133  136 1   
   137  133  138 1   
   138  134  135 2   
   139  134  142 1   
   140  136  139 1   
   141  136  140 1   
   142  136  141 1   
   143  142  143 1   
   144  142  147 1   
   145  143  144 1   
   146  143  146 1   
   147  143  148 1   
   148  144  145 2   
   149  144  152 1   
   150  146  149 1   
   151  146  150 1   
   152  146  151 1   
   153  152  153 1   
   154  152  161 1   
   155  153  154 1   
   156  153  156 1   
   157  153  162 1   
   158  154  155 2   
   159  154  167 1   
   160  156  157 1   
   161  156  163 1   
   162  156  164 1   
   163  157  158 1   
   164  157  165 1   
   165  157  166 1   
   166  158  159 1   
   167  158  160 1   
   168  167  168 1   
   169  167  172 1   
   170  168  169 1   
   171  168  170 1   
   172  168  171 1   
   173  174  175 1   
   174  174  176 1   
   175  177  178 1   
   176  177  179 1   
   177  180  181 1   
   178  180  182 1   
   179  183  184 1   
   180  183  185 1   
   181  186  187 1   
   182  186  188 1   
   183  189  190 1   
   184  189  191 1   
@<TRIPOS>SUBSTRUCTURE
     1 MOL         1 TEMP              0 ****  ****    0 ROOT
