@<TRIPOS>MOLECULE
MOL
  185   180     1     0     0
SMALL
resp


@<TRIPOS>ATOM
      1 C1          4.1930    3.0120    3.6470 c3        1 MOL     -0.537595
      2 C2          5.2590    2.3280    2.8290 c         1 MOL      0.924365
      3 O1          4.9900    1.2290    2.3760 o         1 MOL     -0.660435
      4 H1          3.3730    3.3120    2.9950 hc        1 MOL      0.130017
      5 H2          3.8200    2.3240    4.4060 hc        1 MOL      0.130017
      6 H3          4.6140    3.8930    4.1300 hc        1 MOL      0.130017
      7 N1          6.4750    2.9630    2.7270 n         1 MOL     -0.790755
      8 C3          7.6890    2.6300    1.9330 c3        1 MOL      0.172202
      9 C4          8.0490    1.1330    1.8500 c         1 MOL      0.466973
     10 O2          8.8560    0.7530    0.9980 o         1 MOL     -0.486554
     11 C5          7.5130    3.2220    0.5330 c3        1 MOL     -0.243925
     12 C6          7.2790    4.7970    0.5640 c         1 MOL      0.684124
     13 O3          6.2800    5.2770   -0.0480 o         1 MOL     -0.655894
     14 O4          7.9650    5.4990    1.3390 o         1 MOL     -0.655894
     15 H4          6.5100    3.8630    3.1790 hn        1 MOL      0.387528
     16 H5          8.6210    3.0800    2.2920 h1        1 MOL      0.056584
     17 H6          6.5510    2.8740    0.1640 hc        1 MOL      0.075658
     18 H7          8.3170    2.9180   -0.1330 hc        1 MOL      0.075658
     19 N2          7.4570    0.3120    2.7280 n         1 MOL     -0.415463
     20 C7          7.8200   -1.1570    2.6400 c3        1 MOL     -0.040211
     21 C8          7.0790   -1.8760    1.5310 c         1 MOL      0.614536
     22 O5          7.3520   -2.9970    1.1150 o         1 MOL     -0.599657
     23 C9          7.4000   -1.6800    4.0370 c3        1 MOL      0.025524
     24 C10         5.8920   -1.8650    4.2230 c3        1 MOL     -0.093957
     25 C11         5.5340   -2.5760    5.5360 c3        1 MOL      0.082451
     26 C12         6.0680   -3.9240    5.8590 c3        1 MOL     -0.013986
     27 N3          5.8150   -4.2010    7.2830 n4        1 MOL     -0.194652
     28 H8          6.8050    0.5960    3.4530 hn        1 MOL      0.259279
     29 H9          8.8970   -1.1910    2.5140 h1        1 MOL      0.107447
     30 H10         7.9140   -1.0820    4.7840 hc        1 MOL     -0.005145
     31 H11         7.7510   -2.7110    3.9690 hc        1 MOL     -0.005145
     32 H12         5.5070   -2.4810    3.4130 hc        1 MOL      0.064967
     33 H13         5.4390   -0.8770    4.2740 hc        1 MOL      0.064967
     34 H14         4.4580   -2.6970    5.5610 hc        1 MOL     -0.005791
     35 H15         5.8030   -1.9850    6.4170 hc        1 MOL     -0.005791
     36 H16         7.1350   -4.0780    5.7050 hx        1 MOL      0.092975
     37 H17         5.4450   -4.6070    5.2700 hx        1 MOL      0.092975
     38 H18         6.2920   -3.5700    7.9020 hn        1 MOL      0.240283
     39 H19         4.8460   -4.0620    7.5310 hn        1 MOL      0.240283
     40 H20         6.0530   -5.1420    7.5690 hn        1 MOL      0.240283
     41 N4          5.9760   -1.2850    1.0400 n         1 MOL     -0.398259
     42 C13         5.1240   -1.8460    0.0230 c3        1 MOL      0.003559
     43 C14         5.5160   -1.4680   -1.4360 c         1 MOL      0.636512
     44 O6          6.0850   -0.4590   -1.7210 o         1 MOL     -0.526395
     45 C15         3.6610   -1.3910    0.2980 c3        1 MOL     -0.029239
     46 C16         2.6600   -2.0020   -0.7190 c         1 MOL      0.549274
     47 O7          2.6030   -1.4890   -1.8890 o         1 MOL     -0.652371
     48 O8          1.9750   -2.9740   -0.3780 o         1 MOL     -0.652371
     49 H21         5.7650   -0.3780    1.4300 hn        1 MOL      0.277229
     50 H22         5.0870   -2.9320   -0.0590 h1        1 MOL      0.046640
     51 H23         3.6560   -0.3010    0.2950 hc        1 MOL      0.024150
     52 H24         3.3630   -1.6860    1.3050 hc        1 MOL      0.024150
     53 N5          5.3550   -2.3110   -2.4130 n         1 MOL     -0.334811
     54 C17         5.8510   -2.1980   -3.8000 c3        1 MOL     -0.130907
     55 C18         5.4640   -0.9920   -4.5540 c         1 MOL      0.663204
     56 O9          6.1230   -0.6070   -5.5370 o         1 MOL     -0.604428
     57 H25         4.9720   -3.2340   -2.2250 hn        1 MOL      0.226325
     58 H26         5.4100   -2.9550   -4.4610 h1        1 MOL      0.075884
     59 H27         6.9330   -2.3260   -3.8470 h1        1 MOL      0.075884
     60 N6          4.3720   -0.3640   -4.1420 n         1 MOL     -0.298393
     61 C19         3.8350    0.9330   -4.6340 c3        1 MOL     -0.009156
     62 C20         3.4320    1.9930   -3.5810 c         1 MOL      0.530404
     63 O10         3.4690    3.1560   -3.8410 o         1 MOL     -0.547486
     64 C21         2.6980    0.6430   -5.5930 c3        1 MOL     -0.171124
     65 C22         1.3920    0.3660   -4.9570 c         1 MOL      0.614998
     66 N7          0.4430    1.2200   -5.1370 n         1 MOL     -0.760250
     67 O11         1.1850   -0.6830   -4.3170 o         1 MOL     -0.578309
     68 H28         3.9850   -0.7500   -3.2950 hn        1 MOL      0.065951
     69 H29         4.5830    1.4830   -5.2040 h1        1 MOL      0.121366
     70 H30         3.0230   -0.1700   -6.2410 hc        1 MOL      0.065248
     71 H31         2.5520    1.5000   -6.2630 hc        1 MOL      0.065248
     72 H32         0.5800    2.1490   -5.5170 hn        1 MOL      0.382458
     73 H33        -0.4270    0.9630   -4.6990 hn        1 MOL      0.382458
     74 N8          2.9770    1.5990   -2.4120 n         1 MOL     -0.169829
     75 C23         2.4440    2.4140   -1.3060 c3        1 MOL     -0.211488
     76 C24         0.9060    2.6700   -1.4250 c         1 MOL      0.794642
     77 O12         0.2010    1.9950   -2.2220 o         1 MOL     -0.630677
     78 H34         2.7780    0.6090   -2.4130 hn        1 MOL      0.118843
     79 H35         2.8660    3.4130   -1.3280 h1        1 MOL      0.138872
     80 H36         2.6840    1.8740   -0.3870 h1        1 MOL      0.138872
     81 N9          0.4390    3.6810   -0.6810 n         1 MOL     -0.804865
     82 C25        -1.0020    3.9720   -0.4640 c3        1 MOL      0.551917
     83 C26        -1.6070    2.8710    0.5010 c         1 MOL      0.225608
     84 O13        -0.8400    2.1190    1.1470 o         1 MOL     -0.519008
     85 C27        -1.1000    5.4220    0.0010 c3        1 MOL     -0.203308
     86 C28        -2.4470    5.8300    0.5700 ca        1 MOL      0.021190
     87 C29        -3.5810    5.9940   -0.2720 ca        1 MOL     -0.157652
     88 C30        -2.5760    5.8580    1.9470 ca        1 MOL     -0.157652
     89 C31        -4.8470    6.1620    0.2930 ca        1 MOL     -0.220389
     90 C32        -3.8150    5.9750    2.5720 ca        1 MOL     -0.220389
     91 C33        -4.9490    6.1210    1.7090 ca        1 MOL      0.295626
     92 O14        -6.1740    6.3410    2.2650 oh        1 MOL     -0.521181
     93 H37         1.0650    4.1220   -0.0270 hn        1 MOL      0.362422
     94 H38        -1.5350    3.8580   -1.4150 h1        1 MOL     -0.015064
     95 H39        -0.8850    6.0690   -0.8650 hc        1 MOL      0.082726
     96 H40        -0.2980    5.5610    0.7280 hc        1 MOL      0.082726
     97 H41        -3.5420    5.9150   -1.3440 ha        1 MOL      0.142551
     98 H42        -1.7480    5.6790    2.6070 ha        1 MOL      0.142551
     99 H43        -5.6840    6.4340   -0.3350 ha        1 MOL      0.149502
    100 H44        -3.8740    6.0290    3.6480 ha        1 MOL      0.149502
    101 H45        -6.0290    6.8170    3.0800 ho        1 MOL      0.389666
    102 N10        -2.9330    2.7920    0.6190 n         1 MOL     -0.063068
    103 C34        -3.6980    1.6340    1.1660 c3        1 MOL      0.020396
    104 C35        -4.6650    1.2090    0.0380 c         1 MOL      0.233946
    105 O15        -4.6830    0.0700   -0.2880 o         1 MOL     -0.360850
    106 C36        -4.3660    2.0150    2.5120 c3        1 MOL      0.236386
    107 C37        -3.3210    2.4050    3.5290 c3        1 MOL     -0.161524
    108 C38        -5.2840    0.9260    3.1170 c3        1 MOL     -0.571490
    109 C39        -3.6890    2.7000    4.9750 c3        1 MOL     -0.163014
    110 H46        -3.3420    3.5050    0.0410 hn        1 MOL     -0.002074
    111 H47        -3.0780    0.7670    1.4050 h1        1 MOL      0.109993
    112 H48        -4.9780    2.9090    2.4270 hc        1 MOL     -0.041602
    113 H49        -2.6960    3.2190    3.1560 hc        1 MOL      0.091865
    114 H50        -2.6900    1.5230    3.6130 hc        1 MOL      0.091865
    115 H51        -4.6150    0.1160    3.4170 hc        1 MOL      0.159741
    116 H52        -5.8600    1.3360    3.9460 hc        1 MOL      0.159741
    117 H53        -5.9810    0.5870    2.3420 hc        1 MOL      0.159741
    118 H54        -2.9470    3.2630    5.5310 hc        1 MOL      0.042677
    119 H55        -4.5670    3.3470    4.9670 hc        1 MOL      0.042677
    120 H56        -3.9820    1.8050    5.5340 hc        1 MOL      0.042677
    121 N11        -5.3950    2.1230   -0.5700 n         1 MOL     -0.212874
    122 C40        -6.3100    1.7700   -1.6760 c3        1 MOL      0.094571
    123 C41        -7.5310    0.9500   -1.3620 c         1 MOL      0.235637
    124 O16        -8.1930    0.3670   -2.2660 o         1 MOL     -0.483762
    125 C42        -6.9400    3.0840   -2.2450 c3        1 MOL      0.227611
    126 O17        -5.9140    4.0220   -2.6240 oh        1 MOL     -0.608387
    127 H57        -5.4680    3.0050   -0.0800 hn        1 MOL      0.248322
    128 H58        -5.8770    1.2560   -2.5240 h1        1 MOL      0.111572
    129 H59        -7.6240    3.5230   -1.5200 h1        1 MOL      0.003741
    130 H60        -7.5650    2.7970   -3.0930 h1        1 MOL      0.003741
    131 H61        -6.3790    4.8530   -2.7720 ho        1 MOL      0.399963
    132 N12        -7.9220    0.8620   -0.0550 n         1 MOL     -0.133858
    133 C43        -8.9130   -0.0710    0.5680 c3        1 MOL      0.095552
    134 C44        -8.5060   -1.5480    0.5040 c         1 MOL      0.503913
    135 O18        -9.3980   -2.4140    0.6700 o         1 MOL     -0.538753
    136 C45       -10.3130    0.3660    0.1340 c3        1 MOL     -0.362310
    137 H62        -7.4770    1.5980    0.4850 hn        1 MOL      0.136314
    138 H63        -8.8220    0.0880    1.6420 h1        1 MOL      0.057131
    139 H64       -10.6710    0.0210   -0.8400 hc        1 MOL      0.110542
    140 H65       -11.0970   -0.0290    0.7780 hc        1 MOL      0.110542
    141 H66       -10.4340    1.4440    0.2000 hc        1 MOL      0.110542
    142 N13        -7.2360   -1.8300    0.2300 n         1 MOL     -0.448204
    143 C46        -6.7760   -3.1500   -0.0150 c3        1 MOL      0.473437
    144 C47        -5.4900   -3.4680    0.7390 c         1 MOL      0.311191
    145 O19        -4.7500   -2.5360    1.0960 o         1 MOL     -0.398706
    146 C48        -6.5510   -3.3900   -1.5210 c3        1 MOL     -0.173500
    147 H67        -6.5330   -1.1040    0.2240 hn        1 MOL      0.141056
    148 H68        -7.5230   -3.8150    0.4310 h1        1 MOL     -0.071154
    149 H69        -5.8410   -2.6600   -1.9090 hc        1 MOL      0.051452
    150 H70        -6.1960   -4.3990   -1.7460 hc        1 MOL      0.051452
    151 H71        -7.5420   -3.4190   -1.9830 hc        1 MOL      0.051452
    152 N14        -5.2280   -4.8070    0.9530 n         1 MOL     -0.259085
    153 C49        -4.1310   -5.2960    1.7730 c3        1 MOL     -0.147259
    154 C50        -4.2250   -4.9650    3.2920 c         1 MOL      0.441510
    155 O20        -3.2590   -4.6340    4.0170 o         1 MOL     -0.491381
    156 C51        -2.7420   -4.9800    1.0750 c3        1 MOL      0.039971
    157 C52        -2.6660   -5.3620   -0.4190 c3        1 MOL      0.134070
    158 C53        -1.7230   -4.4780   -1.2220 c         1 MOL      0.700169
    159 O21        -1.7450   -3.2340   -1.1860 o         1 MOL     -0.780315
    160 O22        -0.8970   -5.0740   -1.9390 o         1 MOL     -0.780315
    161 H72        -5.9270   -5.4690    0.6350 hn        1 MOL      0.225764
    162 H73        -4.2740   -6.3820    1.7490 h1        1 MOL      0.068125
    163 H74        -1.8750   -5.4410    1.5550 hc        1 MOL      0.028641
    164 H75        -2.5650   -3.9180    1.1820 hc        1 MOL      0.028641
    165 H76        -3.6250   -5.1970   -0.9060 hc        1 MOL     -0.075457
    166 H77        -2.4060   -6.4150   -0.5400 hc        1 MOL     -0.075457
    167 N15        -5.4830   -4.8880    3.7570 n         1 MOL     -0.317297
    168 C54        -5.8820   -4.3030    4.9870 c3        1 MOL     -0.038934
    169 H78        -5.0190   -4.2250    5.6490 h1        1 MOL      0.057770
    170 H79        -6.2880   -3.3080    4.8020 h1        1 MOL      0.057770
    171 H80        -6.6440   -4.9250    5.4560 h1        1 MOL      0.057770
    172 H81        -6.2140   -5.1950    3.1420 hn        1 MOL      0.233523
    173 Ca1         0.4290   -2.8000   -2.7410 Ca        1 MOL      1.766420
    174 O23         2.6510   -4.4760   -3.0270 oh        1 MOL     -0.850799
    175 H82         3.0820   -5.0510   -2.3910 ho        1 MOL      0.420103
    176 H83         3.1760   -4.5490   -3.8150 ho        1 MOL      0.420103
    177 O24        -1.7960   -3.0980   -4.2680 oh        1 MOL     -0.850799
    178 H84        -2.2360   -3.9340   -4.3920 ho        1 MOL      0.420103
    179 H85        -2.3580   -2.4620   -4.7120 ho        1 MOL      0.420103
    180 O25        -0.5380   -0.5300   -1.7920 oh        1 MOL     -0.850799
    181 H86        -1.0010   -0.3910   -0.9600 ho        1 MOL      0.420103
    182 H87        -0.1880    0.3390   -2.0170 ho        1 MOL      0.420103
    183 O26         0.9360   -3.8920   -5.1750 oh        1 MOL     -0.850799
    184 H88         1.0050   -4.8410   -5.1090 ho        1 MOL      0.420103
    185 H89         0.8120   -3.7280   -6.1140 ho        1 MOL      0.420103
@<TRIPOS>BOND
     1    1    2 1   
     2    1    4 1   
     3    1    5 1   
     4    1    6 1   
     5    2    3 2   
     6    2    7 1   
     7    7    8 1   
     8    7   15 1   
     9    8    9 1   
    10    8   11 1   
    11    8   16 1   
    12    9   10 2   
    13    9   19 1   
    14   11   12 1   
    15   11   17 1   
    16   11   18 1   
    17   12   13 1   
    18   12   14 1   
    19   19   20 1   
    20   19   28 1   
    21   20   21 1   
    22   20   23 1   
    23   20   29 1   
    24   21   22 2   
    25   21   41 1   
    26   23   24 1   
    27   23   30 1   
    28   23   31 1   
    29   24   25 1   
    30   24   32 1   
    31   24   33 1   
    32   25   26 1   
    33   25   34 1   
    34   25   35 1   
    35   26   27 1   
    36   26   36 1   
    37   26   37 1   
    38   27   38 1   
    39   27   39 1   
    40   27   40 1   
    41   41   42 1   
    42   41   49 1   
    43   42   43 1   
    44   42   45 1   
    45   42   50 1   
    46   43   44 2   
    47   43   53 1   
    48   45   46 1   
    49   45   51 1   
    50   45   52 1   
    51   46   47 1   
    52   46   48 1   
    53   53   54 1   
    54   53   57 1   
    55   54   55 1   
    56   54   58 1   
    57   54   59 1   
    58   55   56 2   
    59   55   60 1   
    60   60   61 1   
    61   60   68 1   
    62   61   62 1   
    63   61   64 1   
    64   61   69 1   
    65   62   63 2   
    66   62   74 1   
    67   64   65 1   
    68   64   70 1   
    69   64   71 1   
    70   65   66 1   
    71   65   67 2   
    72   66   72 1   
    73   66   73 1   
    74   74   75 1   
    75   74   78 1   
    76   75   76 1   
    77   75   79 1   
    78   75   80 1   
    79   76   77 2   
    80   76   81 1   
    81   81   82 1   
    82   81   93 1   
    83   82   83 1   
    84   82   85 1   
    85   82   94 1   
    86   83   84 2   
    87   83  102 1   
    88   85   86 1   
    89   85   95 1   
    90   85   96 1   
    91   86   87 ar  
    92   86   88 ar  
    93   87   89 ar  
    94   87   97 1   
    95   88   90 ar  
    96   88   98 1   
    97   89   91 ar  
    98   89   99 1   
    99   90   91 ar  
   100   90  100 1   
   101   91   92 1   
   102   92  101 1   
   103  102  103 1   
   104  102  110 1   
   105  103  104 1   
   106  103  106 1   
   107  103  111 1   
   108  104  105 2   
   109  104  121 1   
   110  106  107 1   
   111  106  108 1   
   112  106  112 1   
   113  107  109 1   
   114  107  113 1   
   115  107  114 1   
   116  108  115 1   
   117  108  116 1   
   118  108  117 1   
   119  109  118 1   
   120  109  119 1   
   121  109  120 1   
   122  121  122 1   
   123  121  127 1   
   124  122  123 1   
   125  122  125 1   
   126  122  128 1   
   127  123  124 2   
   128  123  132 1   
   129  125  126 1   
   130  125  129 1   
   131  125  130 1   
   132  126  131 1   
   133  132  133 1   
   134  132  137 1   
   135  133  134 1   
   136  133  136 1   
   137  133  138 1   
   138  134  135 2   
   139  134  142 1   
   140  136  139 1   
   141  136  140 1   
   142  136  141 1   
   143  142  143 1   
   144  142  147 1   
   145  143  144 1   
   146  143  146 1   
   147  143  148 1   
   148  144  145 2   
   149  144  152 1   
   150  146  149 1   
   151  146  150 1   
   152  146  151 1   
   153  152  153 1   
   154  152  161 1   
   155  153  154 1   
   156  153  156 1   
   157  153  162 1   
   158  154  155 2   
   159  154  167 1   
   160  156  157 1   
   161  156  163 1   
   162  156  164 1   
   163  157  158 1   
   164  157  165 1   
   165  157  166 1   
   166  158  159 1   
   167  158  160 1   
   168  167  168 1   
   169  167  172 1   
   170  168  169 1   
   171  168  170 1   
   172  168  171 1   
   173  174  175 1   
   174  174  176 1   
   175  177  178 1   
   176  177  179 1   
   177  180  181 1   
   178  180  182 1   
   179  183  184 1   
   180  183  185 1   
@<TRIPOS>SUBSTRUCTURE
     1 MOL         1 TEMP              0 ****  ****    0 ROOT
