@<TRIPOS>MOLECULE
MOL
  184   179     1     0     0
SMALL
resp


@<TRIPOS>ATOM
      1 C1          4.1660   -6.0490    3.4850 c3        1 MOL     -0.285701
      2 C2          4.6380   -4.6400    3.1260 c         1 MOL      0.657419
      3 O1          4.3040   -3.7000    3.8430 o         1 MOL     -0.595578
      4 H1          4.6430   -6.3660    4.4120 hc        1 MOL      0.064199
      5 H2          3.0840   -6.0490    3.6170 hc        1 MOL      0.064199
      6 H3          4.4360   -6.7390    2.6860 hc        1 MOL      0.064199
      7 N1          5.4070   -4.3270    2.1060 n         1 MOL     -0.443629
      8 C3          6.0060   -5.1980    1.1490 c3        1 MOL      0.137097
      9 C4          5.5480   -4.9320   -0.2790 c         1 MOL      0.434059
     10 O2          4.5110   -4.2750   -0.4640 o         1 MOL     -0.450877
     11 C5          7.5180   -5.1940    1.3440 c3        1 MOL     -0.148707
     12 C6          8.1560   -3.8140    1.2450 c         1 MOL      0.664243
     13 O3          8.5230   -3.4020    0.1460 o         1 MOL     -0.699818
     14 O4          8.1810   -2.9940    2.1940 o         1 MOL     -0.699818
     15 H4          5.7570   -3.3820    2.0410 hn        1 MOL      0.349358
     16 H5          5.7570   -6.2360    1.3870 h1        1 MOL      0.049485
     17 H6          8.0040   -5.8990    0.6680 hc        1 MOL      0.008442
     18 H7          7.8140   -5.6000    2.3080 hc        1 MOL      0.008442
     19 N2          6.3770   -5.1990   -1.2940 n         1 MOL     -0.593666
     20 C7          6.3590   -4.6590   -2.5920 c3        1 MOL      0.458120
     21 C8          6.0980   -3.1180   -2.7070 c         1 MOL      0.319432
     22 O5          5.6140   -2.7000   -3.7700 o         1 MOL     -0.546276
     23 C9          5.5290   -5.5430   -3.4450 c3        1 MOL     -0.251243
     24 H8          7.2090   -5.7170   -1.0710 hn        1 MOL      0.290838
     25 H9          7.3690   -4.7420   -3.0090 h1        1 MOL     -0.024098
     26 H10         4.5040   -5.6450   -3.1070 hc        1 MOL      0.053767
     27 H11         5.5010   -5.0830   -4.4320 hc        1 MOL      0.053767
     28 H12         5.8910   -6.5660   -3.5980 hc        1 MOL      0.053767
     29 N3          6.4820   -2.3030   -1.6960 n         1 MOL      0.126554
     30 C10         6.2840   -0.8410   -1.9190 c3        1 MOL     -0.060453
     31 C11         7.5810   -0.1280   -2.2650 c         1 MOL      0.310423
     32 O6          8.6400   -0.5400   -1.7590 o         1 MOL     -0.527020
     33 C12         5.4670   -0.2170   -0.7040 c3        1 MOL     -0.136678
     34 C13         6.0960   -0.8120    0.5660 c         1 MOL      0.665287
     35 O7          7.1040   -0.2350    0.9140 o         1 MOL     -0.611754
     36 O8          5.5890   -1.7280    1.1420 o         1 MOL     -0.611754
     37 H13         7.0000   -2.7050   -0.9210 hn        1 MOL     -0.174548
     38 H14         5.7210   -0.6420   -2.8290 h1        1 MOL      0.080064
     39 H15         4.4360   -0.5400   -0.7700 hc        1 MOL      0.052762
     40 H16         5.5890    0.8600   -0.7030 hc        1 MOL      0.052762
     41 N4          7.4770    0.9930   -2.8980 n         1 MOL     -0.194099
     42 C14         8.4680    2.0700   -2.9380 c3        1 MOL     -0.270663
     43 C15         7.9200    3.1890   -2.0800 c         1 MOL      0.469842
     44 O9          8.6790    3.8760   -1.3760 o         1 MOL     -0.548685
     45 H17         6.5490    1.2080   -3.2420 hn        1 MOL      0.228774
     46 H18         8.5550    2.4390   -3.9610 h1        1 MOL      0.151735
     47 H19         9.4320    1.6970   -2.5990 h1        1 MOL      0.151735
     48 N5          6.6120    3.4830   -2.1120 n         1 MOL     -0.206262
     49 C16         5.9020    4.4820   -1.2790 c3        1 MOL     -0.086697
     50 C17         4.5730    3.8850   -0.9620 c         1 MOL      0.627804
     51 O10         4.1200    2.9190   -1.5940 o         1 MOL     -0.493213
     52 C18         5.7110    5.7850   -2.0910 c3        1 MOL     -0.300802
     53 C19         5.1620    6.8950   -1.1590 c         1 MOL      0.712277
     54 N6          4.1500    7.6830   -1.5700 n         1 MOL     -0.801781
     55 O11         5.7710    7.1480   -0.1050 o         1 MOL     -0.573929
     56 H20         6.1040    3.1340   -2.9080 hn        1 MOL      0.229267
     57 H21         6.4720    4.7390   -0.3870 h1        1 MOL      0.135367
     58 H22         5.1750    5.6640   -3.0280 hc        1 MOL      0.103779
     59 H23         6.6820    6.1170   -2.4540 hc        1 MOL      0.103779
     60 H24         3.6310    7.5120   -2.4100 hn        1 MOL      0.372599
     61 H25         3.7190    8.2700   -0.8650 hn        1 MOL      0.372599
     62 N7          3.8950    4.4240    0.0970 n         1 MOL     -0.588444
     63 C20         2.5280    4.0810    0.3510 c3        1 MOL      0.077977
     64 C21         1.4710    4.7750   -0.4660 c         1 MOL      0.514211
     65 O12         1.8090    5.2070   -1.5740 o         1 MOL     -0.563597
     66 H26         4.3970    5.1380    0.6050 hn        1 MOL      0.313626
     67 H27         2.3510    4.0780    1.4240 h1        1 MOL      0.083204
     68 H28         2.4500    3.0250    0.1060 h1        1 MOL      0.083204
     69 N8          0.1870    4.8520   -0.1330 n         1 MOL     -0.395246
     70 C22        -0.3480    4.4370    1.1620 c3        1 MOL     -0.199029
     71 C23        -1.6210    3.5600    0.9430 c         1 MOL      0.661540
     72 O13        -2.3280    3.6710   -0.0580 o         1 MOL     -0.530277
     73 C24        -0.7670    5.6560    1.9670 c3        1 MOL      0.468227
     74 C25        -1.0580    5.4110    3.3810 c3        1 MOL     -0.253710
     75 O14         0.2470    6.5880    2.1130 oh        1 MOL     -0.627469
     76 H29        -0.3910    5.3630   -0.7930 hn        1 MOL      0.292147
     77 H30         0.3250    3.8890    1.8150 h1        1 MOL      0.080361
     78 H31        -1.6060    6.1780    1.4890 h1        1 MOL     -0.000917
     79 H32         0.0000    7.2480    1.4630 ho        1 MOL      0.356179
     80 H33        -1.3760    6.3210    3.8960 hc        1 MOL      0.061896
     81 H34        -1.8740    4.6880    3.4850 hc        1 MOL      0.061896
     82 H35        -0.1580    5.0720    3.9010 hc        1 MOL      0.061896
     83 N9         -1.8640    2.5980    1.8530 n         1 MOL     -0.513361
     84 C26        -3.0970    1.7680    1.7780 c3        1 MOL      0.083964
     85 C27        -4.2150    2.5000    2.5340 c         1 MOL      0.518244
     86 O15        -4.0900    2.8100    3.6980 o         1 MOL     -0.584066
     87 C28        -2.7480    0.2940    2.1710 c3        1 MOL     -0.023399
     88 C29        -1.9120   -0.2870    1.0000 c3        1 MOL      0.046241
     89 C30        -4.0300   -0.5410    2.1940 c3        1 MOL     -0.355082
     90 C31        -1.3160   -1.6000    1.4710 c3        1 MOL     -0.343580
     91 H36        -1.3820    2.6400    2.7340 hn        1 MOL      0.271827
     92 H37        -3.4270    1.6720    0.7450 h1        1 MOL      0.091899
     93 H38        -2.3640    0.3450    3.1910 hc        1 MOL      0.048132
     94 H39        -1.1510    0.4640    0.7910 hc        1 MOL      0.029482
     95 H40        -2.5480   -0.4520    0.1290 hc        1 MOL      0.029482
     96 H41        -3.8420   -1.5700    2.4810 hc        1 MOL      0.103235
     97 H42        -4.7140   -0.3060    3.0120 hc        1 MOL      0.103235
     98 H43        -4.6030   -0.3870    1.2760 hc        1 MOL      0.103235
     99 H44        -0.6470   -2.0440    0.7280 hc        1 MOL      0.094048
    100 H45        -0.7230   -1.6120    2.3880 hc        1 MOL      0.094048
    101 H46        -2.1310   -2.3240    1.4380 hc        1 MOL      0.094048
    102 N10        -5.3030    2.9150    1.9010 n         1 MOL     -0.443698
    103 C32        -5.8130    2.6880    0.4810 c3        1 MOL      0.132566
    104 C33        -7.1300    1.9080    0.4290 c         1 MOL      0.511789
    105 O16        -7.7290    1.5870    1.4780 o         1 MOL     -0.542677
    106 C34        -5.9770    4.1130   -0.1490 c3        1 MOL     -0.153682
    107 C35        -6.7260    5.2020    0.5890 c         1 MOL      0.746238
    108 O17        -7.4880    4.9520    1.5380 o         1 MOL     -0.721874
    109 O18        -6.5030    6.3610    0.2140 o         1 MOL     -0.721874
    110 H47        -5.9800    3.4430    2.4470 hn        1 MOL      0.316747
    111 H48        -5.0950    2.2040   -0.1960 h1        1 MOL      0.056230
    112 H49        -6.4900    3.9150   -1.0890 hc        1 MOL     -0.001358
    113 H50        -4.9790    4.5410   -0.2690 hc        1 MOL     -0.001358
    114 N11        -7.6250    1.4600   -0.7150 n         1 MOL     -0.671199
    115 C36        -8.8200    0.6050   -0.7550 c3        1 MOL      0.513657
    116 C37        -9.0090   -0.1620   -2.0130 c         1 MOL      0.274805
    117 O19        -8.6200    0.4460   -3.0400 o         1 MOL     -0.538439
    118 C38       -10.0310    1.5250   -0.6090 c3        1 MOL     -0.140427
    119 C39       -11.3800    0.9820   -0.3560 ca        1 MOL      0.022019
    120 C40       -12.5030    1.0880   -1.2140 ca        1 MOL     -0.116584
    121 C41       -11.5640    0.2860    0.8820 ca        1 MOL     -0.116584
    122 C42       -13.6790    0.3740   -0.9440 ca        1 MOL     -0.168202
    123 C43       -12.7690   -0.3300    1.1560 ca        1 MOL     -0.168202
    124 C44       -13.7890   -0.3520    0.2490 ca        1 MOL     -0.039774
    125 H51        -7.0670    1.5460   -1.5590 hn        1 MOL      0.345744
    126 H52        -8.8280   -0.1130    0.0580 h1        1 MOL     -0.037942
    127 H53       -10.1690    2.1360   -1.5020 hc        1 MOL      0.076641
    128 H54        -9.8200    2.0700    0.3130 hc        1 MOL      0.076641
    129 H55       -12.4090    1.6010   -2.1580 ha        1 MOL      0.118910
    130 H56       -10.7500    0.2320    1.5910 ha        1 MOL      0.118910
    131 H57       -14.4990    0.4170   -1.6450 ha        1 MOL      0.104607
    132 H58       -12.8870   -0.7330    2.1420 ha        1 MOL      0.104607
    133 H59       -14.7960   -0.6440    0.5110 ha        1 MOL      0.063813
    134 N12        -9.4990   -1.4000   -2.1070 n         1 MOL     -0.067788
    135 C45        -9.9350   -2.1790   -0.9100 c3        1 MOL      0.048346
    136 C46        -8.9400   -2.8900    0.0350 c         1 MOL      0.433625
    137 O20        -9.2670   -2.9430    1.2260 o         1 MOL     -0.525771
    138 C47       -10.9320   -3.1400   -1.5240 c3        1 MOL     -0.157163
    139 C48       -11.3520   -2.6120   -2.9070 c3        1 MOL      0.044496
    140 C49       -10.0110   -1.9570   -3.3270 c3        1 MOL     -0.167972
    141 H60       -10.5100   -1.5010   -0.2830 h1        1 MOL      0.136175
    142 H61       -10.4330   -4.1010   -1.6510 hc        1 MOL      0.048739
    143 H62       -11.7600   -3.2220   -0.8170 hc        1 MOL      0.048739
    144 H63       -11.7740   -3.3820   -3.5610 hc        1 MOL     -0.000693
    145 H64       -11.9340   -1.7000   -2.7820 hc        1 MOL     -0.000693
    146 H65        -9.3910   -2.7720   -3.7060 h1        1 MOL      0.099481
    147 H66       -10.2130   -1.2240   -4.1020 h1        1 MOL      0.099481
    148 N13        -7.7950   -3.2510   -0.5310 n         1 MOL     -0.483791
    149 C50        -6.9070   -4.2150    0.0820 c3        1 MOL      0.323230
    150 C51        -7.5190   -5.5690    0.0490 c         1 MOL      0.381451
    151 O21        -7.5700   -6.3360   -0.8940 o         1 MOL     -0.546234
    152 C52        -5.5550   -4.3090   -0.6720 c3        1 MOL     -0.028659
    153 C53        -4.7280   -3.0410   -0.5230 c3        1 MOL     -0.029801
    154 C54        -3.5420   -2.9730   -1.4510 c         1 MOL      0.759052
    155 O22        -3.2150   -1.9010   -2.0020 o         1 MOL     -0.696993
    156 O23        -2.9550   -4.0450   -1.7620 o         1 MOL     -0.696993
    157 H67        -7.6040   -3.0360   -1.4950 hn        1 MOL      0.294142
    158 H68        -6.6240   -3.9370    1.1050 h1        1 MOL      0.059241
    159 H69        -5.6930   -4.4950   -1.7330 hc        1 MOL      0.000457
    160 H70        -4.9770   -5.1510   -0.3070 hc        1 MOL      0.000457
    161 H71        -4.4680   -2.8820    0.5240 hc        1 MOL     -0.058180
    162 H72        -5.3780   -2.1860   -0.7180 hc        1 MOL     -0.058180
    163 N14        -7.8690   -6.0590    1.2610 n         1 MOL     -0.361020
    164 C55        -7.9280   -5.4560    2.6610 c3        1 MOL     -0.153353
    165 H73        -7.6560   -6.2150    3.3950 h1        1 MOL      0.085981
    166 H74        -7.2320   -4.6210    2.7270 h1        1 MOL      0.085981
    167 H75        -8.9400   -5.1040    2.8630 h1        1 MOL      0.085981
    168 H76        -8.1520   -7.0180    1.1790 hn        1 MOL      0.263475
    169 Ca1         9.5660   -1.1210    0.7770 Ca        1 MOL      1.748137
    170 O24        11.3320   -3.1110    1.3340 oh        1 MOL     -0.810262
    171 H77        10.9490   -3.9870    1.3030 ho        1 MOL      0.384808
    172 H78        12.0290   -3.1690    1.9940 ho        1 MOL      0.384808
    173 O25         9.1390   -0.1770    3.2960 oh        1 MOL     -0.810262
    174 H79         9.8010   -0.1000    3.9850 ho        1 MOL      0.384808
    175 H80         8.6160    0.6180    3.3810 ho        1 MOL      0.384808
    176 O26        11.3530   -0.5200   -1.1950 oh        1 MOL     -0.810262
    177 H81        10.9410   -0.5360   -2.0600 ho        1 MOL      0.384808
    178 H82        12.2920   -0.5800   -1.3790 ho        1 MOL      0.384808
    179 O27        12.0390   -0.3000    1.7510 oh        1 MOL     -0.810262
    180 H83        12.0800    0.0140    2.6530 ho        1 MOL      0.384808
    181 H84        12.9250   -0.1620    1.4120 ho        1 MOL      0.384808
    182 O28         9.6410    1.4880    0.5630 oh        1 MOL     -0.810262
    183 H85         9.3790    2.1040    1.2540 ho        1 MOL      0.384808
    184 H86        10.3140    1.9600    0.0690 ho        1 MOL      0.384808
@<TRIPOS>BOND
     1    1    2 1   
     2    1    4 1   
     3    1    5 1   
     4    1    6 1   
     5    2    3 2   
     6    2    7 1   
     7    7    8 1   
     8    7   15 1   
     9    8    9 1   
    10    8   11 1   
    11    8   16 1   
    12    9   10 2   
    13    9   19 1   
    14   11   12 1   
    15   11   17 1   
    16   11   18 1   
    17   12   13 1   
    18   12   14 1   
    19   19   20 1   
    20   19   24 1   
    21   20   21 1   
    22   20   23 1   
    23   20   25 1   
    24   21   22 2   
    25   21   29 1   
    26   23   26 1   
    27   23   27 1   
    28   23   28 1   
    29   29   30 1   
    30   29   37 1   
    31   30   31 1   
    32   30   33 1   
    33   30   38 1   
    34   31   32 2   
    35   31   41 1   
    36   33   34 1   
    37   33   39 1   
    38   33   40 1   
    39   34   35 1   
    40   34   36 1   
    41   41   42 1   
    42   41   45 1   
    43   42   43 1   
    44   42   46 1   
    45   42   47 1   
    46   43   44 2   
    47   43   48 1   
    48   48   49 1   
    49   48   56 1   
    50   49   50 1   
    51   49   52 1   
    52   49   57 1   
    53   50   51 2   
    54   50   62 1   
    55   52   53 1   
    56   52   58 1   
    57   52   59 1   
    58   53   54 1   
    59   53   55 2   
    60   54   60 1   
    61   54   61 1   
    62   62   63 1   
    63   62   66 1   
    64   63   64 1   
    65   63   67 1   
    66   63   68 1   
    67   64   65 2   
    68   64   69 1   
    69   69   70 1   
    70   69   76 1   
    71   70   71 1   
    72   70   73 1   
    73   70   77 1   
    74   71   72 2   
    75   71   83 1   
    76   73   74 1   
    77   73   75 1   
    78   73   78 1   
    79   74   80 1   
    80   74   81 1   
    81   74   82 1   
    82   75   79 1   
    83   83   84 1   
    84   83   91 1   
    85   84   85 1   
    86   84   87 1   
    87   84   92 1   
    88   85   86 2   
    89   85  102 1   
    90   87   88 1   
    91   87   89 1   
    92   87   93 1   
    93   88   90 1   
    94   88   94 1   
    95   88   95 1   
    96   89   96 1   
    97   89   97 1   
    98   89   98 1   
    99   90   99 1   
   100   90  100 1   
   101   90  101 1   
   102  102  103 1   
   103  102  110 1   
   104  103  104 1   
   105  103  106 1   
   106  103  111 1   
   107  104  105 2   
   108  104  114 1   
   109  106  107 1   
   110  106  112 1   
   111  106  113 1   
   112  107  108 1   
   113  107  109 1   
   114  114  115 1   
   115  114  125 1   
   116  115  116 1   
   117  115  118 1   
   118  115  126 1   
   119  116  117 2   
   120  116  134 1   
   121  118  119 1   
   122  118  127 1   
   123  118  128 1   
   124  119  120 ar  
   125  119  121 ar  
   126  120  122 ar  
   127  120  129 1   
   128  121  123 ar  
   129  121  130 1   
   130  122  124 ar  
   131  122  131 1   
   132  123  124 ar  
   133  123  132 1   
   134  124  133 1   
   135  134  135 1   
   136  134  140 1   
   137  135  136 1   
   138  135  138 1   
   139  135  141 1   
   140  136  137 2   
   141  136  148 1   
   142  138  139 1   
   143  138  142 1   
   144  138  143 1   
   145  139  140 1   
   146  139  144 1   
   147  139  145 1   
   148  140  146 1   
   149  140  147 1   
   150  148  149 1   
   151  148  157 1   
   152  149  150 1   
   153  149  152 1   
   154  149  158 1   
   155  150  151 2   
   156  150  163 1   
   157  152  153 1   
   158  152  159 1   
   159  152  160 1   
   160  153  154 1   
   161  153  161 1   
   162  153  162 1   
   163  154  155 1   
   164  154  156 1   
   165  163  164 1   
   166  163  168 1   
   167  164  165 1   
   168  164  166 1   
   169  164  167 1   
   170  170  171 1   
   171  170  172 1   
   172  173  174 1   
   173  173  175 1   
   174  176  177 1   
   175  176  178 1   
   176  179  180 1   
   177  179  181 1   
   178  182  183 1   
   179  182  184 1   
@<TRIPOS>SUBSTRUCTURE
     1 MOL         1 TEMP              0 ****  ****    0 ROOT
