@<TRIPOS>MOLECULE
MOL
  188   182     1     0     0
SMALL
resp


@<TRIPOS>ATOM
      1 C1          7.3550    5.6470   -0.0770 c3        1 MOL     -0.399809
      2 C2          8.3050    4.6930    0.6020 c         1 MOL      0.652504
      3 O1          8.0500    4.3320    1.7820 o         1 MOL     -0.587825
      4 H1          6.3820    5.1690   -0.1940 hc        1 MOL      0.098448
      5 H2          7.2470    6.5460    0.5280 hc        1 MOL      0.098448
      6 H3          7.7480    5.9140   -1.0580 hc        1 MOL      0.098448
      7 N1          9.3590    4.2950   -0.0740 n         1 MOL     -0.448522
      8 C3         10.3740    3.3810    0.4970 c3        1 MOL      0.138416
      9 C4          9.9210    2.0410    0.1040 c         1 MOL      0.530928
     10 O2         10.2070    1.5100   -0.9450 o         1 MOL     -0.529569
     11 C5         11.7330    3.7930   -0.0970 c3        1 MOL     -0.267033
     12 C6         12.9540    3.0510    0.4910 c         1 MOL      0.750754
     13 O3         12.7100    2.3360    1.5310 o         1 MOL     -0.711806
     14 O4         14.0940    3.1970   -0.0420 o         1 MOL     -0.711806
     15 H4          9.6460    4.6720   -0.9680 hn        1 MOL      0.270546
     16 H5         10.5300    3.5730    1.5610 h1        1 MOL      0.069372
     17 H6         11.9040    4.8480    0.1100 hc        1 MOL      0.048538
     18 H7         11.7070    3.4960   -1.1400 hc        1 MOL      0.048538
     19 N2          9.2400    1.3590    1.0530 n         1 MOL     -0.546132
     20 C7          8.4640    0.1220    0.8090 c3        1 MOL      0.069525
     21 C8          7.1010    0.0620    1.3740 c         1 MOL      0.706208
     22 O5          6.8850    0.6140    2.4150 o         1 MOL     -0.516091
     23 C9          9.5290   -1.0110    1.0580 c3        1 MOL     -0.230694
     24 C10         8.9800   -2.4330    1.0090 c3        1 MOL     -0.032961
     25 C11        10.1770   -3.3770    1.0760 c3        1 MOL      0.039418
     26 C12        10.8030   -3.8090   -0.2630 c3        1 MOL      0.029858
     27 N3         11.9430   -4.6720    0.0310 n4        1 MOL     -0.130464
     28 H8          9.1410    1.7200    1.9980 hn        1 MOL      0.302835
     29 H9          8.2860   -0.0340   -0.2560 h1        1 MOL      0.026267
     30 H10        10.1270   -0.8080    1.9480 hc        1 MOL      0.133808
     31 H11        10.3570   -0.9400    0.3640 hc        1 MOL      0.133808
     32 H12         8.3950   -2.6070    0.1060 hc        1 MOL      0.032831
     33 H13         8.3740   -2.5830    1.9050 hc        1 MOL      0.032831
     34 H14         9.8530   -4.3630    1.4090 hc        1 MOL      0.000114
     35 H15        10.9270   -2.8970    1.7080 hc        1 MOL      0.000114
     36 H16        11.1500   -2.9450   -0.8280 hx        1 MOL      0.069208
     37 H17        10.0780   -4.4630   -0.7580 hx        1 MOL      0.069208
     38 H18        12.1690   -5.2450   -0.7690 hn        1 MOL      0.231352
     39 H19        12.8190   -4.1680    0.1370 hn        1 MOL      0.231352
     40 H20        11.9130   -5.1800    0.9130 hn        1 MOL      0.231352
     41 N4          6.1680   -0.6230    0.7000 n         1 MOL     -0.580733
     42 C13         4.8690   -0.9590    1.1840 c3        1 MOL      0.128703
     43 C14         4.3990   -2.4230    1.1760 c         1 MOL      0.437540
     44 O6          4.9670   -3.1720    0.4210 o         1 MOL     -0.512926
     45 C15         3.8900   -0.0660    0.4150 c3        1 MOL     -0.154501
     46 C16         2.4550   -0.2220    0.9680 c         1 MOL      0.648573
     47 O7          1.5910   -1.0910    0.5730 o         1 MOL     -0.715477
     48 O8          2.0760    0.7100    1.7060 o         1 MOL     -0.715477
     49 H21         6.3280   -0.8470   -0.2740 hn        1 MOL      0.312274
     50 H22         4.9300   -0.6570    2.2400 h1        1 MOL      0.015240
     51 H23         3.9900   -0.3870   -0.6250 hc        1 MOL      0.072267
     52 H24         4.1440    0.9890    0.4220 hc        1 MOL      0.072267
     53 N5          3.6530   -2.8720    2.1630 n         1 MOL     -0.093584
     54 C17         3.2920   -4.2620    2.3540 c3        1 MOL     -0.513173
     55 C18         2.3970   -4.7140    1.2100 c         1 MOL      0.685130
     56 O9          2.3340   -5.9050    0.9300 o         1 MOL     -0.560795
     57 H25         3.3990   -2.2670    2.9340 hn        1 MOL      0.163561
     58 H26         2.7980   -4.2870    3.3200 h1        1 MOL      0.197732
     59 H27         4.1690   -4.9010    2.2440 h1        1 MOL      0.197732
     60 N6          1.7120   -3.8240    0.5420 n         1 MOL     -0.542532
     61 C19         0.8990   -4.2430   -0.6630 c3        1 MOL     -0.035477
     62 C20         1.6400   -3.8590   -1.9450 c         1 MOL      0.583376
     63 O10         1.3710   -4.4650   -2.9850 o         1 MOL     -0.544679
     64 C21        -0.5070   -3.5390   -0.6580 c3        1 MOL      0.103848
     65 C22        -1.3190   -3.4570    0.6090 c         1 MOL      0.699555
     66 N7         -2.1510   -4.4590    0.8560 n         1 MOL     -0.811404
     67 O11        -1.2020   -2.5530    1.3820 o         1 MOL     -0.563391
     68 H28         1.6250   -2.8820    0.8980 hn        1 MOL      0.329576
     69 H29         0.7550   -5.3190   -0.7540 h1        1 MOL      0.102399
     70 H30        -1.0480   -4.0760   -1.4420 hc        1 MOL     -0.089819
     71 H31        -0.3030   -2.5100   -0.9630 hc        1 MOL     -0.089819
     72 H32        -2.1520   -5.2960    0.2850 hn        1 MOL      0.384378
     73 H33        -2.5930   -4.4990    1.7590 hn        1 MOL      0.384378
     74 N8          2.5270   -2.8600   -1.8680 n         1 MOL     -0.238877
     75 C23         3.0490   -2.1450   -3.0160 c3        1 MOL     -0.352497
     76 C24         2.0420   -1.1300   -3.4830 c         1 MOL      0.633609
     77 O12         2.2240   -0.6330   -4.5910 o         1 MOL     -0.553255
     78 H34         2.8430   -2.5620   -0.9500 hn        1 MOL      0.204321
     79 H35         3.2550   -2.8440   -3.8310 h1        1 MOL      0.169966
     80 H36         4.0230   -1.6620   -2.8780 h1        1 MOL      0.169966
     81 N9          1.1460   -0.5580   -2.6740 n         1 MOL     -0.515898
     82 C25         0.1840    0.5080   -3.0410 c3        1 MOL      0.081430
     83 C26        -0.9700    0.4410   -1.9640 c         1 MOL      0.615473
     84 O13        -0.8040    0.0490   -0.7790 o         1 MOL     -0.600149
     85 C27         0.9590    1.9000   -2.9560 c3        1 MOL     -0.245423
     86 C28         0.1340    3.1310   -3.4170 ca        1 MOL      0.245487
     87 C29        -0.5350    3.2060   -4.6650 ca        1 MOL     -0.335937
     88 C30         0.0450    4.1910   -2.4800 ca        1 MOL     -0.335937
     89 C31        -1.2510    4.4080   -4.9520 ca        1 MOL     -0.137451
     90 C32        -0.7310    5.3200   -2.8040 ca        1 MOL     -0.137451
     91 C33        -1.4160    5.4540   -4.0090 ca        1 MOL      0.283780
     92 O14        -2.1230    6.5650   -4.3100 oh        1 MOL     -0.504883
     93 H37         1.0820   -0.7300   -1.6840 hn        1 MOL      0.320287
     94 H38        -0.2270    0.3050   -4.0310 h1        1 MOL      0.083873
     95 H39         1.8240    1.8530   -3.6220 hc        1 MOL      0.107257
     96 H40         1.2530    2.0500   -1.9200 hc        1 MOL      0.107257
     97 H41        -0.4490    2.5490   -5.5140 ha        1 MOL      0.195027
     98 H42         0.4840    4.0530   -1.5040 ha        1 MOL      0.195027
     99 H43        -1.7200    4.5160   -5.9140 ha        1 MOL      0.122234
    100 H44        -0.7710    6.1350   -2.0930 ha        1 MOL      0.122234
    101 H45        -1.9490    7.3400   -3.7820 ho        1 MOL      0.400406
    102 N10        -2.1340    0.8750   -2.4820 n         1 MOL     -0.546784
    103 C34        -3.3460    0.9650   -1.6420 c3        1 MOL      0.238371
    104 C35        -3.8130   -0.4790   -1.3350 c         1 MOL      0.187327
    105 O15        -4.3260   -0.7890   -0.3000 o         1 MOL     -0.315708
    106 C36        -4.4370    1.7950   -2.4000 c3        1 MOL     -0.039741
    107 C37        -3.8320    3.2220   -2.7070 c3        1 MOL      0.342166
    108 C38        -5.8290    1.8150   -1.6610 c3        1 MOL     -0.436304
    109 C39        -4.8450    4.2640   -3.1020 c3        1 MOL     -0.110069
    110 H46        -2.1970    1.0430   -3.4780 hn        1 MOL      0.277249
    111 H47        -3.1850    1.3570   -0.6410 h1        1 MOL     -0.044314
    112 H48        -4.5410    1.3580   -3.3890 hc        1 MOL      0.027391
    113 H49        -3.1330    3.1270   -3.5360 hc        1 MOL     -0.081997
    114 H50        -3.2150    3.7190   -1.9590 hc        1 MOL     -0.081997
    115 H51        -5.8430    2.3590   -0.7090 hc        1 MOL      0.110492
    116 H52        -6.6030    2.3760   -2.1790 hc        1 MOL      0.110492
    117 H53        -6.1990    0.8330   -1.3600 hc        1 MOL      0.110492
    118 H54        -5.3800    4.6960   -2.2550 hc        1 MOL      0.025219
    119 H55        -4.2640    5.1130   -3.4600 hc        1 MOL      0.025219
    120 H56        -5.4800    3.9400   -3.9320 hc        1 MOL      0.025219
    121 N11        -3.6720   -1.3300   -2.3620 n         1 MOL     -0.164274
    122 C40        -4.0630   -2.7760   -2.2240 c3        1 MOL     -0.054768
    123 C41        -5.5310   -3.0130   -1.9520 c         1 MOL      0.455264
    124 O16        -5.8650   -4.0690   -1.3970 o         1 MOL     -0.512171
    125 C42        -3.6320   -3.8300   -3.2710 c3        1 MOL      0.214564
    126 O17        -4.2270   -3.5410   -4.4820 oh        1 MOL     -0.648059
    127 H57        -3.2260   -1.0450   -3.2240 hn        1 MOL      0.243043
    128 H58        -3.5690   -3.0940   -1.3020 h1        1 MOL      0.002700
    129 H59        -3.8300   -4.8520   -2.9620 h1        1 MOL      0.062347
    130 H60        -2.5540   -3.7350   -3.4210 h1        1 MOL      0.062347
    131 H61        -4.1740   -4.2580   -5.1120 ho        1 MOL      0.428879
    132 N12        -6.3860   -2.1750   -2.5120 n         1 MOL     -0.329259
    133 C43        -7.8280   -2.0270   -2.3670 c3        1 MOL      0.309173
    134 C44        -8.3710   -1.9530   -0.9060 c         1 MOL      0.358998
    135 O18        -9.5820   -2.0470   -0.6180 o         1 MOL     -0.499198
    136 C45        -8.5980   -3.0260   -3.2530 c3        1 MOL     -0.385088
    137 H62        -5.8600   -1.5660   -3.1220 hn        1 MOL      0.206596
    138 H63        -8.0750   -1.0420   -2.7690 h1        1 MOL      0.030832
    139 H64        -9.6570   -2.7930   -3.1070 hc        1 MOL      0.109062
    140 H65        -8.2980   -2.8880   -4.2990 hc        1 MOL      0.109062
    141 H66        -8.4040   -4.0260   -2.8920 hc        1 MOL      0.109062
    142 N13        -7.4830   -1.6360    0.0580 n         1 MOL     -0.314154
    143 C46        -7.7920   -1.2510    1.3860 c3        1 MOL      0.209347
    144 C47        -8.5200    0.1090    1.4550 c         1 MOL      0.522001
    145 O19        -8.2340    1.0540    0.7550 o         1 MOL     -0.425576
    146 C48        -6.4470   -1.2330    2.1560 c3        1 MOL     -0.231602
    147 H67        -6.5580   -1.5030   -0.3230 hn        1 MOL      0.138472
    148 H68        -8.4810   -1.9670    1.8420 h1        1 MOL      0.017476
    149 H69        -5.8260   -0.3840    1.8510 hc        1 MOL      0.059014
    150 H70        -6.5960   -1.2860    3.2330 hc        1 MOL      0.059014
    151 H71        -5.8710   -2.1580    2.0460 hc        1 MOL      0.059014
    152 N14        -9.3510    0.3080    2.5090 n         1 MOL     -0.611828
    153 C49        -9.7500    1.5820    3.0690 c3        1 MOL     -0.047398
    154 C50       -10.4180    2.6040    2.0680 c         1 MOL      0.370815
    155 O20       -10.5270    3.8150    2.3230 o         1 MOL     -0.515126
    156 C51        -8.5470    2.2190    3.7490 c3        1 MOL      0.279111
    157 C52        -8.0940    1.4830    5.0210 c3        1 MOL     -0.131044
    158 C53        -6.8600    2.1180    5.4620 c         1 MOL      0.667698
    159 O21        -6.7510    2.7970    6.5170 o         1 MOL     -0.701782
    160 O22        -5.8110    1.9970    4.7360 o         1 MOL     -0.701782
    161 H72        -9.5810   -0.4890    3.0920 hn        1 MOL      0.335136
    162 H73       -10.5060    1.3810    3.8270 h1        1 MOL      0.106856
    163 H74        -8.7830    3.2020    4.1500 hc        1 MOL     -0.032830
    164 H75        -7.6850    2.2920    3.0930 hc        1 MOL     -0.032830
    165 H76        -7.7610    0.4800    4.7750 hc        1 MOL     -0.009214
    166 H77        -8.9320    1.4890    5.7270 hc        1 MOL     -0.009214
    167 N15       -10.8790    2.1640    0.9170 n         1 MOL     -0.230925
    168 C54       -11.4940    2.9050   -0.2480 c3        1 MOL     -0.089325
    169 H78       -12.5050    2.5330   -0.4220 h1        1 MOL      0.075372
    170 H79       -11.5330    3.9710   -0.0230 h1        1 MOL      0.075372
    171 H80       -10.8910    2.7440   -1.1410 h1        1 MOL      0.075372
    172 H81       -10.6740    1.1820    0.7550 hn        1 MOL      0.205160
    173 Ca1        -0.5420    0.0510    2.0110 Ca        1 MOL      1.754125
    174 O23        -3.0920    0.1700    1.9920 oh        1 MOL     -0.837363
    175 H82        -3.5260   -0.2020    1.2280 ho        1 MOL      0.420332
    176 H83        -3.4790    1.0340    2.0970 ho        1 MOL      0.420332
    177 O24        -1.1330    2.5420    1.7620 oh        1 MOL     -0.837363
    178 H84        -1.0650    3.4170    1.3920 ho        1 MOL      0.420332
    179 H85        -1.7500    2.6260    2.4880 ho        1 MOL      0.420332
    180 O25         0.6110    1.3970    4.1790 oh        1 MOL     -0.837363
    181 H86         0.4600    1.7090    5.0690 ho        1 MOL      0.420332
    182 H87         1.1890    2.0580    3.7860 ho        1 MOL      0.420332
    183 O26        -2.0750   -0.7080    4.3790 oh        1 MOL     -0.837363
    184 H88        -2.9880   -0.9900    4.3940 ho        1 MOL      0.420332
    185 H89        -1.8120   -0.7360    5.3000 ho        1 MOL      0.420332
    186 O27         0.8480   -1.7770    3.6910 oh        1 MOL     -0.837363
    187 H90         1.0190   -2.4170    4.3820 ho        1 MOL      0.420332
    188 H91         1.5990   -1.1840    3.7280 ho        1 MOL      0.420332
@<TRIPOS>BOND
     1    1    2 1   
     2    1    4 1   
     3    1    5 1   
     4    1    6 1   
     5    2    3 2   
     6    2    7 1   
     7    7    8 1   
     8    7   15 1   
     9    8    9 1   
    10    8   11 1   
    11    8   16 1   
    12    9   10 2   
    13    9   19 1   
    14   11   12 1   
    15   11   17 1   
    16   11   18 1   
    17   12   13 1   
    18   12   14 1   
    19   19   20 1   
    20   19   28 1   
    21   20   21 1   
    22   20   23 1   
    23   20   29 1   
    24   21   22 2   
    25   21   41 1   
    26   23   24 1   
    27   23   30 1   
    28   23   31 1   
    29   24   25 1   
    30   24   32 1   
    31   24   33 1   
    32   25   26 1   
    33   25   34 1   
    34   25   35 1   
    35   26   27 1   
    36   26   36 1   
    37   26   37 1   
    38   27   38 1   
    39   27   39 1   
    40   27   40 1   
    41   41   42 1   
    42   41   49 1   
    43   42   43 1   
    44   42   45 1   
    45   42   50 1   
    46   43   44 2   
    47   43   53 1   
    48   45   46 1   
    49   45   51 1   
    50   45   52 1   
    51   46   47 1   
    52   46   48 1   
    53   53   54 1   
    54   53   57 1   
    55   54   55 1   
    56   54   58 1   
    57   54   59 1   
    58   55   56 2   
    59   55   60 1   
    60   60   61 1   
    61   60   68 1   
    62   61   62 1   
    63   61   64 1   
    64   61   69 1   
    65   62   63 2   
    66   62   74 1   
    67   64   65 1   
    68   64   70 1   
    69   64   71 1   
    70   65   66 1   
    71   65   67 2   
    72   66   72 1   
    73   66   73 1   
    74   74   75 1   
    75   74   78 1   
    76   75   76 1   
    77   75   79 1   
    78   75   80 1   
    79   76   77 2   
    80   76   81 1   
    81   81   82 1   
    82   81   93 1   
    83   82   83 1   
    84   82   85 1   
    85   82   94 1   
    86   83   84 2   
    87   83  102 1   
    88   85   86 1   
    89   85   95 1   
    90   85   96 1   
    91   86   87 ar  
    92   86   88 ar  
    93   87   89 ar  
    94   87   97 1   
    95   88   90 ar  
    96   88   98 1   
    97   89   91 ar  
    98   89   99 1   
    99   90   91 ar  
   100   90  100 1   
   101   91   92 1   
   102   92  101 1   
   103  102  103 1   
   104  102  110 1   
   105  103  104 1   
   106  103  106 1   
   107  103  111 1   
   108  104  105 2   
   109  104  121 1   
   110  106  107 1   
   111  106  108 1   
   112  106  112 1   
   113  107  109 1   
   114  107  113 1   
   115  107  114 1   
   116  108  115 1   
   117  108  116 1   
   118  108  117 1   
   119  109  118 1   
   120  109  119 1   
   121  109  120 1   
   122  121  122 1   
   123  121  127 1   
   124  122  123 1   
   125  122  125 1   
   126  122  128 1   
   127  123  124 2   
   128  123  132 1   
   129  125  126 1   
   130  125  129 1   
   131  125  130 1   
   132  126  131 1   
   133  132  133 1   
   134  132  137 1   
   135  133  134 1   
   136  133  136 1   
   137  133  138 1   
   138  134  135 2   
   139  134  142 1   
   140  136  139 1   
   141  136  140 1   
   142  136  141 1   
   143  142  143 1   
   144  142  147 1   
   145  143  144 1   
   146  143  146 1   
   147  143  148 1   
   148  144  145 2   
   149  144  152 1   
   150  146  149 1   
   151  146  150 1   
   152  146  151 1   
   153  152  153 1   
   154  152  161 1   
   155  153  154 1   
   156  153  156 1   
   157  153  162 1   
   158  154  155 2   
   159  154  167 1   
   160  156  157 1   
   161  156  163 1   
   162  156  164 1   
   163  157  158 1   
   164  157  165 1   
   165  157  166 1   
   166  158  159 1   
   167  158  160 1   
   168  167  168 1   
   169  167  172 1   
   170  168  169 1   
   171  168  170 1   
   172  168  171 1   
   173  174  175 1   
   174  174  176 1   
   175  177  178 1   
   176  177  179 1   
   177  180  181 1   
   178  180  182 1   
   179  183  184 1   
   180  183  185 1   
   181  186  187 1   
   182  186  188 1   
@<TRIPOS>SUBSTRUCTURE
     1 MOL         1 TEMP              0 ****  ****    0 ROOT
