@<TRIPOS>MOLECULE
MOL
  189   185     1     0     0
SMALL
resp


@<TRIPOS>ATOM
      1 C1          4.3940    4.6390   -3.2510 c3        1 MOL     -0.370090
      2 C2          5.1730    3.7910   -2.2010 c         1 MOL      0.836347
      3 O1          4.6580    3.5070   -1.1130 o         1 MOL     -0.658769
      4 H1          4.7230    5.6770   -3.1950 hc        1 MOL      0.095734
      5 H2          4.5900    4.2490   -4.2500 hc        1 MOL      0.095734
      6 H3          3.3250    4.5850   -3.0420 hc        1 MOL      0.095734
      7 N1          6.4110    3.3620   -2.5460 n         1 MOL     -0.632999
      8 C3          7.1670    2.2000   -1.9930 c3        1 MOL      0.318912
      9 C4          6.2480    0.9990   -1.7570 c         1 MOL      0.344291
     10 O2          5.8240    0.7880   -0.5960 o         1 MOL     -0.573369
     11 C5          8.0370    2.5420   -0.7510 c3        1 MOL     -0.193556
     12 C6          7.4390    3.5660    0.2040 c         1 MOL      0.692635
     13 O3          6.7020    3.1490    1.1290 o         1 MOL     -0.712109
     14 O4          7.7070    4.7930    0.2060 o         1 MOL     -0.712109
     15 H4          6.7250    3.7100   -3.4420 hn        1 MOL      0.294181
     16 H5          7.8650    1.9210   -2.7820 h1        1 MOL      0.008407
     17 H6          8.9870    2.8850   -1.1690 hc        1 MOL      0.037866
     18 H7          8.2290    1.6670   -0.1250 hc        1 MOL      0.037866
     19 N2          5.8910    0.3120   -2.8770 n         1 MOL     -0.657742
     20 C7          5.0300   -0.8990   -2.9600 c3        1 MOL      0.334832
     21 C8          5.6310   -2.0990   -2.2870 c         1 MOL      0.301805
     22 O5          5.8140   -3.0850   -2.8910 o         1 MOL     -0.564305
     23 C9          3.5430   -0.5490   -2.6420 c3        1 MOL      0.509462
     24 C10         2.5740   -1.6720   -3.0530 c3        1 MOL     -0.173126
     25 C11         3.1660    0.7320   -3.3230 c3        1 MOL     -0.227113
     26 C12         2.7480   -2.2680   -4.4740 c3        1 MOL     -0.509917
     27 H8          6.2160    0.6470   -3.7680 hn        1 MOL      0.329007
     28 H9          5.0250   -1.0380   -4.0420 h1        1 MOL     -0.021490
     29 H10         3.4210   -0.3750   -1.5680 hc        1 MOL     -0.260630
     30 H11         1.5630   -1.2850   -3.0250 hc        1 MOL      0.124422
     31 H12         2.7980   -2.4890   -2.3540 hc        1 MOL      0.124422
     32 H13         2.1150    1.0150   -3.1970 hc        1 MOL      0.006099
     33 H14         3.7970    1.5660   -3.0370 hc        1 MOL      0.006099
     34 H15         3.4070    0.5620   -4.3760 hc        1 MOL      0.006099
     35 H16         2.3220   -1.5390   -5.1670 hc        1 MOL      0.121587
     36 H17         3.7790   -2.4810   -4.7460 hc        1 MOL      0.121587
     37 H18         2.2680   -3.2440   -4.4630 hc        1 MOL      0.121587
     38 N3          5.8670   -1.9810   -1.0170 n         1 MOL     -0.034006
     39 C13         6.6880   -2.9850   -0.3060 c3        1 MOL     -0.139725
     40 C14         6.0520   -4.3980   -0.0420 c         1 MOL      0.589614
     41 O6          6.7770   -5.3970   -0.0730 o         1 MOL     -0.531615
     42 C15         7.0590   -2.4410    1.0790 c3        1 MOL     -0.326547
     43 C16         8.0120   -3.3220    1.9550 c         1 MOL      0.763621
     44 O7          9.2450   -3.0370    1.9630 o         1 MOL     -0.710536
     45 O8          7.6160   -4.2420    2.6610 o         1 MOL     -0.710536
     46 H19         5.8730   -1.0370   -0.6870 hn        1 MOL      0.357010
     47 H20         7.6250   -3.1460   -0.8210 h1        1 MOL      0.081655
     48 H21         6.1960   -2.2000    1.7060 hc        1 MOL      0.051451
     49 H22         7.5970   -1.5050    0.9180 hc        1 MOL      0.051451
     50 N4          4.7600   -4.5130    0.1790 n         1 MOL     -0.521264
     51 C17         3.7950   -3.4680    0.6930 c3        1 MOL      0.261731
     52 C18         2.6340   -4.0800    1.4980 c         1 MOL      0.633586
     53 O9          2.0950   -5.1700    1.2600 o         1 MOL     -0.609534
     54 H23         4.4420   -5.4770    0.1940 hn        1 MOL      0.266634
     55 H24         3.4060   -2.8690   -0.1240 h1        1 MOL      0.002049
     56 H25         4.3790   -2.8170    1.3460 h1        1 MOL      0.002049
     57 N5          2.0170   -3.3500    2.4600 n         1 MOL     -0.348669
     58 C19         2.4340   -1.9990    2.8510 c3        1 MOL     -0.112120
     59 C20         2.5760   -0.9690    1.7400 c         1 MOL      0.818769
     60 O10         3.6810   -0.4110    1.5790 o         1 MOL     -0.728216
     61 C21         3.5970   -1.9430    3.8530 c3        1 MOL     -0.573704
     62 C22         3.5390   -2.8800    5.0600 c         1 MOL      0.698280
     63 O11         4.4360   -3.7400    5.2420 o         1 MOL     -0.694864
     64 O12         2.6270   -2.8120    5.9190 o         1 MOL     -0.694864
     65 H26         1.0690   -3.6370    2.6670 hn        1 MOL      0.261838
     66 H27         1.5800   -1.5030    3.2940 h1        1 MOL      0.084830
     67 H28         3.6970   -0.9190    4.2260 hc        1 MOL      0.217655
     68 H29         4.4960   -2.2450    3.3200 hc        1 MOL      0.217655
     69 N6          1.6270   -0.6500    0.8500 n         1 MOL     -0.502990
     70 C23         0.1730   -1.0880    0.8300 c3        1 MOL     -0.167584
     71 C24        -0.0660   -2.4680    0.1620 c         1 MOL      0.630107
     72 O13         0.7740   -2.8600   -0.6410 o         1 MOL     -0.579488
     73 H30         1.9150    0.1270    0.2610 hn        1 MOL      0.275704
     74 H31        -0.5640   -0.4200    0.3760 h1        1 MOL      0.092006
     75 H32        -0.1070   -1.1950    1.8750 h1        1 MOL      0.092006
     76 N7         -1.1670   -3.1560    0.5010 n         1 MOL     -0.408516
     77 C25        -1.5470   -4.3700   -0.1430 c3        1 MOL     -0.254473
     78 C26        -2.3060   -4.2660   -1.5530 c         1 MOL      0.492256
     79 O14        -2.5120   -5.3130   -2.2270 o         1 MOL     -0.535405
     80 C27        -2.2470   -5.2980    0.8350 c3        1 MOL      0.351892
     81 C28        -3.4550   -4.7740    1.6500 c3        1 MOL     -0.386142
     82 C29        -4.6470   -4.3630    0.7910 c         1 MOL      0.648370
     83 N8         -5.6080   -5.2070    0.7500 n         1 MOL     -0.650667
     84 O15        -4.7060   -3.3250    0.1430 o         1 MOL     -0.584114
     85 H33        -1.7810   -2.8510    1.2400 hn        1 MOL      0.251901
     86 H34        -0.6020   -4.8670   -0.3710 h1        1 MOL      0.161958
     87 H35        -1.5360   -5.6590    1.5810 hc        1 MOL     -0.033235
     88 H36        -2.5040   -6.2050    0.3020 hc        1 MOL     -0.033235
     89 H37        -3.1460   -3.8870    2.1970 hc        1 MOL      0.095626
     90 H38        -3.7700   -5.6410    2.2410 hc        1 MOL      0.095626
     91 H39        -5.6740   -5.9000    1.4850 hn        1 MOL      0.328025
     92 H40        -6.3010   -5.1310    0.0310 hn        1 MOL      0.328025
     93 N9         -2.7900   -3.0550   -1.9200 n         1 MOL     -0.068245
     94 C30        -3.2960   -2.6860   -3.2350 c3        1 MOL     -0.162102
     95 C31        -4.6540   -1.9490   -3.2140 c         1 MOL      0.491845
     96 O16        -5.2060   -1.6110   -4.2570 o         1 MOL     -0.552971
     97 C32        -2.2170   -1.9610   -4.0820 c3        1 MOL      0.295439
     98 C33        -0.8980   -2.6580   -4.3640 c3        1 MOL     -0.314480
     99 C34        -1.8450   -0.6310   -3.2970 c3        1 MOL     -0.314480
    100 H41        -2.6390   -2.2410   -1.3330 hn        1 MOL      0.142615
    101 H42        -3.5140   -3.6450   -3.7040 h1        1 MOL      0.082293
    102 H43        -2.7260   -1.6830   -5.0080 hc        1 MOL     -0.019159
    103 H44        -0.5180   -3.1420   -3.4650 hc        1 MOL      0.073708
    104 H45        -1.0930   -3.4470   -5.0910 hc        1 MOL      0.073708
    105 H46        -0.1840   -1.9480   -4.7940 hc        1 MOL      0.073708
    106 H47        -1.3700   -0.8540   -2.3390 hc        1 MOL      0.073708
    107 H48        -1.0800   -0.1110   -3.8860 hc        1 MOL      0.073708
    108 H49        -2.6320    0.1090   -3.1350 hc        1 MOL      0.073708
    109 N10        -5.1600   -1.6350   -2.0290 n         1 MOL     -0.360704
    110 C35        -6.5780   -1.2490   -1.8020 c3        1 MOL      0.056342
    111 C36        -6.7850    0.0570   -1.0870 c         1 MOL      0.586895
    112 O17        -7.8210    0.7210   -1.3140 o         1 MOL     -0.587131
    113 C37        -7.3680   -2.3210   -1.1160 c3        1 MOL     -0.273699
    114 C38        -7.5240   -3.6570   -1.7650 c         1 MOL      0.641532
    115 N11        -7.5160   -3.7000   -3.1040 n         1 MOL     -0.743986
    116 O18        -7.6680   -4.6720   -1.0790 o         1 MOL     -0.570289
    117 H50        -4.6370   -1.9040   -1.2140 hn        1 MOL      0.238693
    118 H51        -7.0090   -1.0950   -2.7880 h1        1 MOL      0.060097
    119 H52        -8.3760   -1.9030   -1.0000 hc        1 MOL      0.115817
    120 H53        -7.0280   -2.5140   -0.1010 hc        1 MOL      0.115817
    121 H54        -7.4240   -2.8650   -3.6690 hn        1 MOL      0.358176
    122 H55        -7.6100   -4.5840   -3.5900 hn        1 MOL      0.358176
    123 N12        -5.8020    0.5040   -0.3720 n         1 MOL     -0.501124
    124 C39        -5.9740    1.6570    0.4740 c3        1 MOL      0.363769
    125 C40        -4.7490    2.5970    0.5770 c         1 MOL      0.356362
    126 O19        -3.6530    1.9980    0.6010 o         1 MOL     -0.525688
    127 C41        -6.2930    1.2260    1.9060 c3        1 MOL     -0.226637
    128 C42        -7.6020    0.5300    2.1360 ca        1 MOL     -0.037842
    129 C43        -8.8130    1.2210    2.1730 ca        1 MOL     -0.052874
    130 C44        -7.5870   -0.8840    2.2820 ca        1 MOL     -0.052874
    131 C45        -9.9720    0.6080    2.5440 ca        1 MOL     -0.335247
    132 C46        -8.8090   -1.5370    2.4950 ca        1 MOL     -0.335247
    133 C47        -9.9640   -0.7920    2.5810 ca        1 MOL      0.404055
    134 O20       -11.1340   -1.4750    2.6860 oh        1 MOL     -0.526098
    135 H56        -4.9080    0.0450   -0.2860 hn        1 MOL      0.282482
    136 H57        -6.7730    2.2800    0.0710 h1        1 MOL      0.001826
    137 H58        -6.2940    2.0820    2.5810 hc        1 MOL      0.111179
    138 H59        -5.4760    0.5860    2.2060 hc        1 MOL      0.111179
    139 H60        -8.7260    2.2650    1.9120 ha        1 MOL      0.094169
    140 H61        -6.6800   -1.4600    2.2510 ha        1 MOL      0.094169
    141 H62       -10.8630    1.1730    2.7570 ha        1 MOL      0.140921
    142 H63        -8.9530   -2.5980    2.6020 ha        1 MOL      0.140921
    143 H64       -11.8930   -0.8810    2.6660 ho        1 MOL      0.361858
    144 N13        -4.9480    3.9460    0.5680 n         1 MOL     -0.646671
    145 C48        -4.0270    4.9960    1.0260 c3        1 MOL      0.341035
    146 C49        -2.8880    5.3410    0.0800 c         1 MOL      0.428053
    147 O21        -2.3060    6.4210    0.1740 o         1 MOL     -0.532841
    148 C50        -3.4280    4.5690    2.3940 c3        1 MOL      0.324558
    149 C51        -3.4070    5.7450    3.3590 c3        1 MOL     -0.248943
    150 C52        -2.7050    5.4040    4.7030 c         1 MOL      0.735501
    151 O22        -2.1790    6.2950    5.3700 o         1 MOL     -0.730149
    152 O23        -2.7220    4.1910    5.0760 o         1 MOL     -0.730149
    153 H65        -5.8570    4.3520    0.3660 hn        1 MOL      0.327310
    154 H66        -4.6080    5.8930    1.2240 h1        1 MOL     -0.031635
    155 H67        -2.4190    4.2150    2.2100 hc        1 MOL     -0.066083
    156 H68        -4.0560    3.8600    2.9350 hc        1 MOL     -0.066083
    157 H69        -4.4810    5.8180    3.5080 hc        1 MOL     -0.011347
    158 H70        -3.1390    6.6340    2.7910 hc        1 MOL     -0.011347
    159 N14        -2.4440    4.5050   -0.8510 n         1 MOL     -0.553037
    160 C53        -1.1660    4.6340   -1.6170 c3        1 MOL      0.011765
    161 C54        -1.5020    5.4380   -2.8570 c         1 MOL      0.483782
    162 O24        -0.6260    5.7930   -3.6230 o         1 MOL     -0.549693
    163 C55        -0.4400    3.3980   -1.9080 c3        1 MOL     -0.179248
    164 C56         0.0140    2.5340   -0.7800 c3        1 MOL      0.377106
    165 C57         1.2360    2.9060    0.0550 c         1 MOL      0.323517
    166 O25         1.1500    3.9600    0.7630 o         1 MOL     -0.493701
    167 O26         2.2140    2.0740    0.0820 o         1 MOL     -0.493701
    168 H71        -2.7780    3.5550   -0.7460 hn        1 MOL      0.323689
    169 H72        -0.4840    5.2650   -1.0520 h1        1 MOL      0.133522
    170 H73         0.4820    3.6840   -2.4210 hc        1 MOL      0.043327
    171 H74        -0.9880    2.7610   -2.6090 hc        1 MOL      0.043327
    172 H75         0.2930    1.5990   -1.2530 hc        1 MOL     -0.067862
    173 H76        -0.8430    2.2600   -0.1620 hc        1 MOL     -0.067862
    174 N15        -2.7420    5.8780   -3.0680 n         1 MOL     -0.191021
    175 C58        -3.2820    6.6330   -4.2670 c3        1 MOL     -0.251980
    176 H77        -2.7210    7.5590   -4.3940 h1        1 MOL      0.102891
    177 H78        -3.1760    6.0190   -5.1610 h1        1 MOL      0.102891
    178 H79        -4.3340    6.8660   -4.1070 h1        1 MOL      0.102891
    179 H80        -3.4480    5.6230   -2.3830 hn        1 MOL      0.189997
    180 Ca1         4.3900    2.2500    1.2250 Ca        1 MOL      1.722580
    181 O27         2.7750    2.1150    3.3990 oh        1 MOL     -0.871379
    182 H81         2.9720    1.6410    4.2110 ho        1 MOL      0.417172
    183 H82         2.0600    2.7070    3.6380 ho        1 MOL      0.417172
    184 O28         3.7120    4.6860    1.7130 oh        1 MOL     -0.871379
    185 H83         3.0770    5.2550    1.2860 ho        1 MOL      0.417172
    186 H84         4.3820    5.2680    2.0580 ho        1 MOL      0.417172
    187 O29         5.9600    0.9610    2.9070 oh        1 MOL     -0.871379
    188 H85         6.5710    1.6720    2.7530 ho        1 MOL      0.417172
    189 H86         6.4720    0.2980    3.3630 ho        1 MOL      0.417172
@<TRIPOS>BOND
     1    1    2 1   
     2    1    4 1   
     3    1    5 1   
     4    1    6 1   
     5    2    3 2   
     6    2    7 1   
     7    7    8 1   
     8    7   15 1   
     9    8    9 1   
    10    8   11 1   
    11    8   16 1   
    12    9   10 2   
    13    9   19 1   
    14   11   12 1   
    15   11   17 1   
    16   11   18 1   
    17   12   13 1   
    18   12   14 1   
    19   19   20 1   
    20   19   27 1   
    21   20   21 1   
    22   20   23 1   
    23   20   28 1   
    24   21   22 2   
    25   21   38 1   
    26   23   24 1   
    27   23   25 1   
    28   23   29 1   
    29   24   26 1   
    30   24   30 1   
    31   24   31 1   
    32   25   32 1   
    33   25   33 1   
    34   25   34 1   
    35   26   35 1   
    36   26   36 1   
    37   26   37 1   
    38   38   39 1   
    39   38   46 1   
    40   39   40 1   
    41   39   42 1   
    42   39   47 1   
    43   40   41 2   
    44   40   50 1   
    45   42   43 1   
    46   42   48 1   
    47   42   49 1   
    48   43   44 1   
    49   43   45 1   
    50   50   51 1   
    51   50   54 1   
    52   51   52 1   
    53   51   55 1   
    54   51   56 1   
    55   52   53 2   
    56   52   57 1   
    57   57   58 1   
    58   57   65 1   
    59   58   59 1   
    60   58   61 1   
    61   58   66 1   
    62   59   60 2   
    63   59   69 1   
    64   61   62 1   
    65   61   67 1   
    66   61   68 1   
    67   62   63 1   
    68   62   64 1   
    69   69   70 1   
    70   69   73 1   
    71   70   71 1   
    72   70   74 1   
    73   70   75 1   
    74   71   72 2   
    75   71   76 1   
    76   76   77 1   
    77   76   85 1   
    78   77   78 1   
    79   77   80 1   
    80   77   86 1   
    81   78   79 2   
    82   78   93 1   
    83   80   81 1   
    84   80   87 1   
    85   80   88 1   
    86   81   82 1   
    87   81   89 1   
    88   81   90 1   
    89   82   83 1   
    90   82   84 2   
    91   83   91 1   
    92   83   92 1   
    93   93   94 1   
    94   93  100 1   
    95   94   95 1   
    96   94   97 1   
    97   94  101 1   
    98   95   96 2   
    99   95  109 1   
   100   97   98 1   
   101   97   99 1   
   102   97  102 1   
   103   98  103 1   
   104   98  104 1   
   105   98  105 1   
   106   99  106 1   
   107   99  107 1   
   108   99  108 1   
   109  109  110 1   
   110  109  117 1   
   111  110  111 1   
   112  110  113 1   
   113  110  118 1   
   114  111  112 2   
   115  111  123 1   
   116  113  114 1   
   117  113  119 1   
   118  113  120 1   
   119  114  115 1   
   120  114  116 2   
   121  115  121 1   
   122  115  122 1   
   123  123  124 1   
   124  123  135 1   
   125  124  125 1   
   126  124  127 1   
   127  124  136 1   
   128  125  126 2   
   129  125  144 1   
   130  127  128 1   
   131  127  137 1   
   132  127  138 1   
   133  128  129 ar  
   134  128  130 ar  
   135  129  131 ar  
   136  129  139 1   
   137  130  132 ar  
   138  130  140 1   
   139  131  133 ar  
   140  131  141 1   
   141  132  133 ar  
   142  132  142 1   
   143  133  134 1   
   144  134  143 1   
   145  144  145 1   
   146  144  153 1   
   147  145  146 1   
   148  145  148 1   
   149  145  154 1   
   150  146  147 2   
   151  146  159 1   
   152  148  149 1   
   153  148  155 1   
   154  148  156 1   
   155  149  150 1   
   156  149  157 1   
   157  149  158 1   
   158  150  151 1   
   159  150  152 1   
   160  159  160 1   
   161  159  168 1   
   162  160  161 1   
   163  160  163 1   
   164  160  169 1   
   165  161  162 2   
   166  161  174 1   
   167  163  164 1   
   168  163  170 1   
   169  163  171 1   
   170  164  165 1   
   171  164  172 1   
   172  164  173 1   
   173  165  166 1   
   174  165  167 1   
   175  174  175 1   
   176  174  179 1   
   177  175  176 1   
   178  175  177 1   
   179  175  178 1   
   180  181  182 1   
   181  181  183 1   
   182  184  185 1   
   183  184  186 1   
   184  187  188 1   
   185  187  189 1   
@<TRIPOS>SUBSTRUCTURE
     1 MOL         1 TEMP              0 ****  ****    0 ROOT
