@<TRIPOS>MOLECULE
MOL
  195   189     1     0     0
SMALL
resp


@<TRIPOS>ATOM
      1 C1          6.4060   -4.9390    1.0930 c3        1 MOL     -0.361284
      2 C2          5.5840   -3.7910    0.3720 c         1 MOL      0.591667
      3 O1          6.0830   -3.1170   -0.5630 o         1 MOL     -0.586494
      4 H1          7.2690   -5.2050    0.4820 hc        1 MOL      0.100817
      5 H2          6.7450   -4.5870    2.0670 hc        1 MOL      0.100817
      6 H3          5.7690   -5.8140    1.2230 hc        1 MOL      0.100817
      7 N1          4.2780   -3.5400    0.6170 n         1 MOL     -0.375958
      8 C3          3.3200   -4.4260    1.3810 c3        1 MOL      0.079958
      9 C4          2.6880   -5.5530    0.6340 c         1 MOL      0.326202
     10 O2          2.4330   -6.6150    1.3200 o         1 MOL     -0.510568
     11 C5          2.1880   -3.5650    2.0500 c3        1 MOL     -0.169245
     12 C6          2.6460   -2.3150    2.7030 c         1 MOL      0.641172
     13 O3          2.6890   -2.1380    3.9100 o         1 MOL     -0.700720
     14 O4          2.9820   -1.3250    1.9780 o         1 MOL     -0.700720
     15 H4          3.8850   -2.7870    0.0650 hn        1 MOL      0.288455
     16 H5          3.9060   -4.8910    2.1880 h1        1 MOL      0.076279
     17 H6          1.5900   -4.1310    2.7760 hc        1 MOL      0.064940
     18 H7          1.5500   -3.1450    1.2730 hc        1 MOL      0.064940
     19 N2          2.6020   -5.4780   -0.6890 n         1 MOL     -0.090546
     20 C7          2.0800   -6.6020   -1.5210 c3        1 MOL     -0.396513
     21 C8          0.5290   -6.9480   -1.2480 c         1 MOL      0.526936
     22 O5          0.0750   -8.0740   -1.5050 o         1 MOL     -0.546929
     23 C9          2.1860   -6.2740   -3.0340 c3        1 MOL      0.269851
     24 C10         1.6540   -4.8880   -3.4130 c3        1 MOL      0.013342
     25 C11         3.6560   -6.4270   -3.4600 c3        1 MOL     -0.208294
     26 C12         1.2350   -4.7370   -4.9250 c3        1 MOL     -0.317594
     27 H8          3.0460   -4.7190   -1.1940 hn        1 MOL      0.181915
     28 H9          2.6930   -7.4730   -1.3380 h1        1 MOL      0.166067
     29 H10         1.6010   -7.0510   -3.5310 hc        1 MOL      0.002897
     30 H11         2.2920   -4.0960   -3.0310 hc        1 MOL      0.034159
     31 H12         0.6540   -4.7800   -3.0030 hc        1 MOL      0.034159
     32 H13         4.2330   -5.5940   -3.0570 hc        1 MOL      0.034125
     33 H14         4.1240   -7.3760   -3.1970 hc        1 MOL      0.034125
     34 H15         3.6740   -6.3250   -4.5500 hc        1 MOL      0.034125
     35 H16         0.4680   -5.4830   -5.1340 hc        1 MOL      0.076909
     36 H17         0.7160   -3.7780   -5.0270 hc        1 MOL      0.076909
     37 H18         2.0160   -4.7290   -5.6900 hc        1 MOL      0.076909
     38 N3         -0.2350   -6.0160   -0.6660 n         1 MOL     -0.344593
     39 C13        -1.7510   -6.0980   -0.7660 c3        1 MOL      0.399553
     40 C14        -2.4270   -5.5660    0.4970 c         1 MOL      0.368703
     41 O6         -1.7430   -5.0280    1.3140 o         1 MOL     -0.526256
     42 C15        -2.2570   -5.2470   -2.0250 c3        1 MOL     -0.523240
     43 C16        -3.6390   -5.7600   -2.5960 c         1 MOL      0.772495
     44 O7         -4.3720   -5.0870   -3.3230 o         1 MOL     -0.704977
     45 O8         -4.0170   -6.8700   -2.2220 o         1 MOL     -0.704977
     46 H19         0.2340   -5.1370   -0.4870 hn        1 MOL      0.170788
     47 H20        -2.1210   -7.1160   -0.8380 h1        1 MOL     -0.026495
     48 H21        -1.5030   -5.2180   -2.8180 hc        1 MOL      0.108146
     49 H22        -2.2800   -4.1950   -1.7570 hc        1 MOL      0.108146
     50 N4         -3.7310   -5.7380    0.5910 n         1 MOL     -0.401946
     51 C17        -4.5870   -4.9610    1.5060 c3        1 MOL      0.019145
     52 C18        -5.0810   -3.7000    0.8850 c         1 MOL      0.619149
     53 O9         -4.4350   -3.1510   -0.0120 o         1 MOL     -0.505799
     54 H23        -4.1870   -6.2220   -0.1740 hn        1 MOL      0.278911
     55 H24        -4.1170   -4.6840    2.4510 h1        1 MOL      0.034878
     56 H25        -5.4300   -5.5830    1.8020 h1        1 MOL      0.034878
     57 N5         -6.2730   -3.2950    1.2820 n         1 MOL     -0.495470
     58 C19        -6.8620   -1.9690    1.0090 c3        1 MOL      0.028608
     59 C20        -7.4030   -1.8820   -0.3670 c         1 MOL      0.672047
     60 O10        -7.9850   -2.8360   -0.9220 o         1 MOL     -0.577537
     61 C21        -7.8610   -1.4540    2.1160 c3        1 MOL     -0.302605
     62 C22        -7.2380   -1.2880    3.4870 c         1 MOL      0.751779
     63 O11        -7.7650   -1.7630    4.4690 o         1 MOL     -0.725045
     64 O12        -6.1750   -0.5580    3.6130 o         1 MOL     -0.725045
     65 H26        -6.6560   -3.9010    1.9900 hn        1 MOL      0.302990
     66 H27        -6.0420   -1.2460    1.0410 h1        1 MOL      0.009393
     67 H28        -8.6230   -2.2240    2.2310 hc        1 MOL      0.057870
     68 H29        -8.3670   -0.5620    1.7430 hc        1 MOL      0.057870
     69 N6         -7.2950   -0.7380   -1.0480 n         1 MOL     -0.589164
     70 C23        -6.9240    0.5960   -0.5370 c3        1 MOL     -0.023915
     71 C24        -6.8390    1.7790   -1.6240 c         1 MOL      0.530240
     72 O13        -6.7930    1.4230   -2.8080 o         1 MOL     -0.516258
     73 H30        -7.5030   -0.7610   -2.0380 hn        1 MOL      0.324141
     74 H31        -5.9330    0.4450   -0.1020 h1        1 MOL      0.136881
     75 H32        -7.5460    0.9170    0.3010 h1        1 MOL      0.136881
     76 N7         -6.7410    3.0670   -1.2940 n         1 MOL     -0.473952
     77 C25        -6.2350    3.6840   -0.0180 c3        1 MOL      0.303790
     78 C26        -4.9870    3.0130    0.4720 c         1 MOL      0.436624
     79 O14        -4.9910    2.4280    1.5630 o         1 MOL     -0.497799
     80 C27        -7.3640    4.0040    0.9630 c3        1 MOL     -0.374123
     81 C28        -8.2070    5.1410    0.4650 c3        1 MOL     -0.052932
     82 C29        -9.2320    5.6550    1.5160 c         1 MOL      0.735084
     83 N8         -9.9510    6.6320    1.1520 n         1 MOL     -0.819571
     84 O15        -9.4320    5.1900    2.6310 o         1 MOL     -0.562220
     85 H33        -6.9350    3.7590   -2.0060 hn        1 MOL      0.253194
     86 H34        -5.8280    4.6720   -0.2150 h1        1 MOL      0.033973
     87 H35        -6.8200    4.5440    1.7520 hc        1 MOL      0.108548
     88 H36        -7.9080    3.1090    1.2610 hc        1 MOL      0.108548
     89 H37        -8.7700    4.7560   -0.3920 hc        1 MOL      0.003872
     90 H38        -7.5800    5.9490    0.0930 hc        1 MOL      0.003872
     91 H39        -9.7530    7.0470    0.2480 hn        1 MOL      0.355206
     92 H40       -10.6790    6.9780    1.7720 hn        1 MOL      0.355206
     93 N9         -3.9560    2.9450   -0.4110 n         1 MOL     -0.366278
     94 C30        -2.6460    2.2140   -0.2380 c3        1 MOL     -0.196734
     95 C31        -2.1680    1.6590   -1.6210 c         1 MOL      0.675487
     96 O16        -2.3450    2.2790   -2.6280 o         1 MOL     -0.552558
     97 C32        -1.4980    2.9110    0.5090 c3        1 MOL      0.309270
     98 C33        -1.6660    2.9920    2.0170 c3        1 MOL     -0.305704
     99 C34        -1.1830    4.3020   -0.0610 c3        1 MOL     -0.305704
    100 H41        -4.1080    3.3380   -1.3240 hn        1 MOL      0.192273
    101 H42        -2.8270    1.2680    0.2860 h1        1 MOL      0.125490
    102 H43        -0.5720    2.3570    0.3500 hc        1 MOL     -0.042829
    103 H44        -0.8480    3.5280    2.4920 hc        1 MOL      0.079331
    104 H45        -2.6410    3.4070    2.2500 hc        1 MOL      0.079331
    105 H46        -1.5770    1.9530    2.3580 hc        1 MOL      0.079331
    106 H47        -0.3830    4.6810    0.5840 hc        1 MOL      0.079331
    107 H48        -0.9270    4.3200   -1.1230 hc        1 MOL      0.079331
    108 H49        -2.0570    4.9520    0.0020 hc        1 MOL      0.079331
    109 N10        -1.4450    0.5540   -1.5430 n         1 MOL     -0.382893
    110 C35        -0.8270   -0.1400   -2.6670 c3        1 MOL     -0.060114
    111 C36         0.4600    0.5740   -3.1690 c         1 MOL      0.428342
    112 O17         1.0180    0.2470   -4.1570 o         1 MOL     -0.512464
    113 C37        -0.5180   -1.5330   -2.2330 c3        1 MOL     -0.023411
    114 C38         0.4700   -1.6670   -1.0570 c         1 MOL      0.542020
    115 N11         0.0670   -1.5410    0.1980 n         1 MOL     -0.657296
    116 O18         1.6320   -1.8410   -1.2400 o         1 MOL     -0.539939
    117 H50        -1.3960    0.1240   -0.6200 hn        1 MOL      0.179046
    118 H51        -1.5630   -0.1480   -3.4650 h1        1 MOL      0.131377
    119 H52        -0.1020   -2.0700   -3.0780 hc        1 MOL      0.061070
    120 H53        -1.4650   -2.0020   -1.9800 hc        1 MOL      0.061070
    121 H54        -0.8870   -1.6130    0.5410 hn        1 MOL      0.324757
    122 H55         0.7580   -1.5770    0.9330 hn        1 MOL      0.324757
    123 N12         0.9240    1.5330   -2.3780 n         1 MOL     -0.070849
    124 C39         2.1540    2.2700   -2.6550 c3        1 MOL     -0.081374
    125 C40         2.8080    2.9290   -1.4860 c         1 MOL      0.622296
    126 O19         2.1360    3.2150   -0.5270 o         1 MOL     -0.492602
    127 C41         1.9060    3.2960   -3.7700 c3        1 MOL      0.017563
    128 C42         1.0310    4.4780   -3.5130 ca        1 MOL     -0.056565
    129 C43         1.6260    5.7640   -3.2690 ca        1 MOL     -0.081477
    130 C44        -0.3870    4.3650   -3.6610 ca        1 MOL     -0.081477
    131 C45         0.7570    6.9000   -3.2600 ca        1 MOL     -0.283510
    132 C46        -1.1730    5.5130   -3.5560 ca        1 MOL     -0.283510
    133 C47        -0.6400    6.7300   -3.2330 ca        1 MOL      0.325099
    134 O20        -1.4810    7.8550   -3.1050 oh        1 MOL     -0.516281
    135 H56         0.3730    1.6980   -1.5410 hn        1 MOL      0.067087
    136 H57         2.8530    1.5790   -3.1310 h1        1 MOL      0.063208
    137 H58         1.4660    2.8220   -4.6460 hc        1 MOL      0.022588
    138 H59         2.8920    3.6430   -4.0860 hc        1 MOL      0.022588
    139 H60         2.6730    5.9220   -3.0660 ha        1 MOL      0.128605
    140 H61        -0.8080    3.4390   -4.0160 ha        1 MOL      0.128605
    141 H62         1.1650    7.8930   -3.1780 ha        1 MOL      0.161996
    142 H63        -2.2300    5.4030   -3.7650 ha        1 MOL      0.161996
    143 H64        -2.4210    7.6850   -3.2170 ho        1 MOL      0.343488
    144 N13         4.1200    3.1410   -1.5120 n         1 MOL     -0.671479
    145 C48         4.9410    3.7380   -0.4310 c3        1 MOL      0.026113
    146 C49         6.3050    3.0080   -0.3260 c         1 MOL      0.391656
    147 O21         7.2300    3.2270   -1.1190 o         1 MOL     -0.496234
    148 C50         4.9960    5.2320   -0.7390 c3        1 MOL      0.153968
    149 C51         5.6800    6.0100    0.3590 c3        1 MOL     -0.317153
    150 C52         5.8150    7.5070    0.0560 c         1 MOL      0.758479
    151 O22         5.0070    8.1580   -0.6350 o         1 MOL     -0.748842
    152 O23         6.7250    8.0950    0.7120 o         1 MOL     -0.748842
    153 H65         4.5820    3.0520   -2.4030 hn        1 MOL      0.351690
    154 H66         4.4060    3.5990    0.5150 h1        1 MOL      0.062635
    155 H67         4.0120    5.6610   -0.9240 hc        1 MOL     -0.001738
    156 H68         5.5800    5.4080   -1.6450 hc        1 MOL     -0.001738
    157 H69         6.6600    5.5570    0.4810 hc        1 MOL      0.041590
    158 H70         5.1920    5.9380    1.3330 hc        1 MOL      0.041590
    159 N14         6.3550    2.0090    0.5210 n         1 MOL     -0.085703
    160 C53         7.2400    0.8750    0.4230 c3        1 MOL     -0.305933
    161 C54         7.2520    0.2040   -0.9670 c         1 MOL      0.496853
    162 O24         8.3060    0.0010   -1.4990 o         1 MOL     -0.562074
    163 C55         6.9470   -0.3040    1.4530 c3        1 MOL      0.109402
    164 C56         7.0140    0.0890    2.9340 c3        1 MOL     -0.283200
    165 C57         5.6320    0.5350    3.4680 c         1 MOL      0.724084
    166 O25         4.9220    1.3190    2.7870 o         1 MOL     -0.741327
    167 O26         5.2430    0.0350    4.5140 o         1 MOL     -0.741327
    168 H71         5.6050    1.8830    1.1960 hn        1 MOL      0.160621
    169 H72         8.2070    1.3200    0.6740 h1        1 MOL      0.121359
    170 H73         7.6450   -1.1040    1.1960 hc        1 MOL      0.028940
    171 H74         6.0190   -0.7750    1.1310 hc        1 MOL      0.028940
    172 H75         7.7740    0.8620    3.0620 hc        1 MOL      0.068510
    173 H76         7.2190   -0.8380    3.4860 hc        1 MOL      0.068510
    174 N15         6.1280   -0.0920   -1.5340 n         1 MOL     -0.036099
    175 C58         5.8720   -0.4740   -2.9460 c3        1 MOL     -0.426341
    176 H77         6.2100   -1.4980   -3.1120 h1        1 MOL      0.145542
    177 H78         4.8040   -0.4080   -3.1530 h1        1 MOL      0.145542
    178 H79         6.4150    0.2000   -3.6090 h1        1 MOL      0.145542
    179 H80         5.3280   -0.1300   -0.9220 hn        1 MOL      0.176307
    180 Ca1         2.6490    0.4560    4.1070 Ca        1 MOL      1.846878
    181 O27         2.9440    2.7930    5.2650 oh        1 MOL     -0.871722
    182 H81         3.4550    2.9920    6.0410 ho        1 MOL      0.424828
    183 H82         2.5720    3.6310    4.9980 ho        1 MOL      0.424828
    184 O28         1.8880    1.4520    1.6700 oh        1 MOL     -0.871722
    185 H83         2.1680    0.8400    0.9910 ho        1 MOL      0.424828
    186 H84         1.8300    2.2920    1.2180 ho        1 MOL      0.424828
    187 O29         0.5250    1.3230    5.7690 oh        1 MOL     -0.871722
    188 H85         0.6680    1.1570    6.7030 ho        1 MOL      0.424828
    189 H86        -0.3160    1.7820    5.7330 ho        1 MOL      0.424828
    190 O30         2.8100   -0.2520    6.6560 oh        1 MOL     -0.871722
    191 H87         3.4250   -0.8380    7.0940 ho        1 MOL      0.424828
    192 H88         2.6110    0.4280    7.3080 ho        1 MOL      0.424828
    193 O31         0.1020   -0.5580    3.5260 oh        1 MOL     -0.871722
    194 H89        -0.5020   -0.1900    4.1690 ho        1 MOL      0.424828
    195 H90        -0.3300   -1.3680    3.2310 ho        1 MOL      0.424828
@<TRIPOS>BOND
     1    1    2 1   
     2    1    4 1   
     3    1    5 1   
     4    1    6 1   
     5    2    3 2   
     6    2    7 1   
     7    7    8 1   
     8    7   15 1   
     9    8    9 1   
    10    8   11 1   
    11    8   16 1   
    12    9   10 2   
    13    9   19 1   
    14   11   12 1   
    15   11   17 1   
    16   11   18 1   
    17   12   13 1   
    18   12   14 1   
    19   19   20 1   
    20   19   27 1   
    21   20   21 1   
    22   20   23 1   
    23   20   28 1   
    24   21   22 2   
    25   21   38 1   
    26   23   24 1   
    27   23   25 1   
    28   23   29 1   
    29   24   26 1   
    30   24   30 1   
    31   24   31 1   
    32   25   32 1   
    33   25   33 1   
    34   25   34 1   
    35   26   35 1   
    36   26   36 1   
    37   26   37 1   
    38   38   39 1   
    39   38   46 1   
    40   39   40 1   
    41   39   42 1   
    42   39   47 1   
    43   40   41 2   
    44   40   50 1   
    45   42   43 1   
    46   42   48 1   
    47   42   49 1   
    48   43   44 1   
    49   43   45 1   
    50   50   51 1   
    51   50   54 1   
    52   51   52 1   
    53   51   55 1   
    54   51   56 1   
    55   52   53 2   
    56   52   57 1   
    57   57   58 1   
    58   57   65 1   
    59   58   59 1   
    60   58   61 1   
    61   58   66 1   
    62   59   60 2   
    63   59   69 1   
    64   61   62 1   
    65   61   67 1   
    66   61   68 1   
    67   62   63 1   
    68   62   64 1   
    69   69   70 1   
    70   69   73 1   
    71   70   71 1   
    72   70   74 1   
    73   70   75 1   
    74   71   72 2   
    75   71   76 1   
    76   76   77 1   
    77   76   85 1   
    78   77   78 1   
    79   77   80 1   
    80   77   86 1   
    81   78   79 2   
    82   78   93 1   
    83   80   81 1   
    84   80   87 1   
    85   80   88 1   
    86   81   82 1   
    87   81   89 1   
    88   81   90 1   
    89   82   83 1   
    90   82   84 2   
    91   83   91 1   
    92   83   92 1   
    93   93   94 1   
    94   93  100 1   
    95   94   95 1   
    96   94   97 1   
    97   94  101 1   
    98   95   96 2   
    99   95  109 1   
   100   97   98 1   
   101   97   99 1   
   102   97  102 1   
   103   98  103 1   
   104   98  104 1   
   105   98  105 1   
   106   99  106 1   
   107   99  107 1   
   108   99  108 1   
   109  109  110 1   
   110  109  117 1   
   111  110  111 1   
   112  110  113 1   
   113  110  118 1   
   114  111  112 2   
   115  111  123 1   
   116  113  114 1   
   117  113  119 1   
   118  113  120 1   
   119  114  115 1   
   120  114  116 2   
   121  115  121 1   
   122  115  122 1   
   123  123  124 1   
   124  123  135 1   
   125  124  125 1   
   126  124  127 1   
   127  124  136 1   
   128  125  126 2   
   129  125  144 1   
   130  127  128 1   
   131  127  137 1   
   132  127  138 1   
   133  128  129 ar  
   134  128  130 ar  
   135  129  131 ar  
   136  129  139 1   
   137  130  132 ar  
   138  130  140 1   
   139  131  133 ar  
   140  131  141 1   
   141  132  133 ar  
   142  132  142 1   
   143  133  134 1   
   144  134  143 1   
   145  144  145 1   
   146  144  153 1   
   147  145  146 1   
   148  145  148 1   
   149  145  154 1   
   150  146  147 2   
   151  146  159 1   
   152  148  149 1   
   153  148  155 1   
   154  148  156 1   
   155  149  150 1   
   156  149  157 1   
   157  149  158 1   
   158  150  151 1   
   159  150  152 1   
   160  159  160 1   
   161  159  168 1   
   162  160  161 1   
   163  160  163 1   
   164  160  169 1   
   165  161  162 2   
   166  161  174 1   
   167  163  164 1   
   168  163  170 1   
   169  163  171 1   
   170  164  165 1   
   171  164  172 1   
   172  164  173 1   
   173  165  166 1   
   174  165  167 1   
   175  174  175 1   
   176  174  179 1   
   177  175  176 1   
   178  175  177 1   
   179  175  178 1   
   180  181  182 1   
   181  181  183 1   
   182  184  185 1   
   183  184  186 1   
   184  187  188 1   
   185  187  189 1   
   186  190  191 1   
   187  190  192 1   
   188  193  194 1   
   189  193  195 1   
@<TRIPOS>SUBSTRUCTURE
     1 MOL         1 TEMP              0 ****  ****    0 ROOT
