@<TRIPOS>MOLECULE
MOL
  181   177     1     0     0
SMALL
resp


@<TRIPOS>ATOM
      1 C1          3.2230   -1.9080    3.8560 c3        1 MOL     -0.665589
      2 C2          4.3760   -0.9040    3.7160 c         1 MOL      0.762356
      3 O1          4.4150    0.1120    4.4210 o         1 MOL     -0.620518
      4 H1          3.2410   -2.3430    4.8550 hc        1 MOL      0.177125
      5 H2          2.2740   -1.3950    3.7010 hc        1 MOL      0.177125
      6 H3          3.3360   -2.6970    3.1130 hc        1 MOL      0.177125
      7 N1          5.3210   -1.2720    2.8740 n         1 MOL     -0.486407
      8 C3          6.5870   -0.6370    2.8190 c3        1 MOL      0.114098
      9 C4          6.9380   -0.1980    1.3990 c         1 MOL      0.442332
     10 O2          6.8660   -1.0170    0.4750 o         1 MOL     -0.491146
     11 C5          7.5950   -1.8100    3.1540 c3        1 MOL     -0.065612
     12 C6          8.9720   -1.3250    3.6690 c         1 MOL      0.663670
     13 O3          9.8890   -1.2970    2.8090 o         1 MOL     -0.728824
     14 O4          9.1230   -1.1250    4.8740 o         1 MOL     -0.728824
     15 H4          5.1790   -2.0860    2.2830 hn        1 MOL      0.265233
     16 H5          6.6710    0.1720    3.5390 h1        1 MOL      0.049589
     17 H6          7.8390   -2.3140    2.2200 hc        1 MOL     -0.000604
     18 H7          7.1110   -2.4300    3.9010 hc        1 MOL     -0.000604
     19 N2          7.1600    1.0770    1.1650 n         1 MOL     -0.509458
     20 C7          6.9550    1.7170   -0.1140 c3        1 MOL      0.368924
     21 C8          5.4180    1.7080   -0.5550 c         1 MOL      0.375247
     22 O5          4.5460    1.5370    0.2860 o         1 MOL     -0.519158
     23 C9          7.4840    3.1430    0.0860 c3        1 MOL     -0.306813
     24 H8          7.4230    1.6890    1.9290 hn        1 MOL      0.315368
     25 H9          7.3880    1.2080   -0.9840 h1        1 MOL      0.010656
     26 H10         7.1050    3.5840    1.0190 hc        1 MOL      0.073798
     27 H11         8.5620    3.0620    0.1620 hc        1 MOL      0.073798
     28 H12         7.2700    3.7610   -0.7780 hc        1 MOL      0.073798
     29 N3          5.1160    1.7620   -1.8720 n         1 MOL     -0.512666
     30 C10         3.7240    1.7640   -2.4720 c3        1 MOL      0.110542
     31 C11         3.2250    3.1520   -2.9330 c         1 MOL      0.625070
     32 O6          2.2820    3.1310   -3.7300 o         1 MOL     -0.535816
     33 C12         3.4930    0.6410   -3.5310 c3        1 MOL     -0.247247
     34 C13         3.9750   -0.7910   -3.3110 c         1 MOL      0.878329
     35 O7          5.1070   -1.1340   -3.6380 o         1 MOL     -0.767517
     36 O8          3.2460   -1.7190   -2.8690 o         1 MOL     -0.767517
     37 H13         5.8560    2.0160   -2.5000 hn        1 MOL      0.289132
     38 H14         3.0920    1.4400   -1.6440 h1        1 MOL      0.061288
     39 H15         3.8530    1.0360   -4.4830 hc        1 MOL      0.051561
     40 H16         2.4100    0.5300   -3.5770 hc        1 MOL      0.051561
     41 N4          3.9190    4.2080   -2.5120 n         1 MOL     -0.456320
     42 C14         3.7020    5.5010   -3.1040 c3        1 MOL     -0.216187
     43 C15         2.3150    6.1460   -3.0720 c         1 MOL      0.556712
     44 O9          2.1970    7.3200   -3.3910 o         1 MOL     -0.538548
     45 H17         4.5870    4.1220   -1.7570 hn        1 MOL      0.340681
     46 H18         4.0700    5.4190   -4.1280 h1        1 MOL      0.125966
     47 H19         4.3880    6.1820   -2.5920 h1        1 MOL      0.125966
     48 N5          1.2420    5.4040   -2.7150 n         1 MOL     -0.389016
     49 C16        -0.1990    5.7830   -2.7230 c3        1 MOL      0.002318
     50 C17        -0.7380    6.1680   -1.3130 c         1 MOL      0.572934
     51 O10        -1.5870    7.0540   -1.2760 o         1 MOL     -0.539721
     52 C18        -0.9460    4.5930   -3.3310 c3        1 MOL     -0.200812
     53 C19        -0.8190    4.4050   -4.7960 c         1 MOL      0.635022
     54 N6          0.3380    4.3280   -5.3810 n         1 MOL     -0.700279
     55 O11        -1.7790    4.5700   -5.5560 o         1 MOL     -0.594511
     56 H20         1.3310    4.4400   -2.4270 hn        1 MOL      0.199730
     57 H21        -0.2700    6.6950   -3.3080 h1        1 MOL      0.124481
     58 H22        -1.9860    4.7340   -3.0290 hc        1 MOL      0.090003
     59 H23        -0.6490    3.6860   -2.8130 hc        1 MOL      0.090003
     60 H24         1.1560    4.2970   -4.7940 hn        1 MOL      0.344736
     61 H25         0.3420    4.2640   -6.3900 hn        1 MOL      0.344736
     62 N7         -0.2940    5.6060   -0.1930 n         1 MOL     -0.472063
     63 C20        -0.8300    5.8960    1.1380 c3        1 MOL     -0.038178
     64 C21        -2.1220    5.1770    1.3420 c         1 MOL      0.559178
     65 O12        -2.5780    4.3220    0.5850 o         1 MOL     -0.437085
     66 H26         0.4510    4.9120   -0.2330 hn        1 MOL      0.305139
     67 H27        -0.9820    6.9710    1.2900 h1        1 MOL      0.078580
     68 H28        -0.0970    5.5940    1.8890 h1        1 MOL      0.078580
     69 N8         -2.8220    5.5600    2.4320 n         1 MOL     -0.196095
     70 C22        -4.0820    5.0600    2.8230 c3        1 MOL     -0.710718
     71 C23        -4.2980    3.6160    3.1320 c         1 MOL      0.678944
     72 O13        -5.4190    3.0990    3.2610 o         1 MOL     -0.592182
     73 C24        -4.7250    5.8760    3.9910 c3        1 MOL      0.650885
     74 C25        -4.1820    5.5850    5.4190 c3        1 MOL     -0.505222
     75 O14        -4.6630    7.2710    3.8060 oh        1 MOL     -0.657556
     76 H29        -2.4940    6.3170    3.0020 hn        1 MOL      0.184392
     77 H30        -4.7030    5.2620    1.9580 h1        1 MOL      0.241020
     78 H31        -5.7910    5.6990    4.0550 h1        1 MOL      0.025266
     79 H32        -3.7420    7.5400    3.8360 ho        1 MOL      0.399979
     80 H33        -4.6350    4.6890    5.8350 hc        1 MOL      0.120749
     81 H34        -3.0900    5.5140    5.4380 hc        1 MOL      0.120749
     82 H35        -4.5960    6.3100    6.1170 hc        1 MOL      0.120749
     83 N9         -3.2060    2.9120    3.3320 n         1 MOL     -0.363667
     84 C26        -3.1890    1.4160    3.4790 c3        1 MOL      0.180137
     85 C27        -2.3130    0.8730    2.3320 c         1 MOL      0.429036
     86 O15        -1.2790    1.4840    2.0470 o         1 MOL     -0.487559
     87 C28        -2.7360    1.0590    4.9440 c3        1 MOL      0.059928
     88 C29        -3.8160    1.4530    5.9910 c3        1 MOL      0.010101
     89 C30        -2.4380   -0.3790    5.1330 c3        1 MOL     -0.065467
     90 C31        -5.2570    0.8320    6.0250 c3        1 MOL     -0.309625
     91 H36        -2.3400    3.2410    2.9460 hn        1 MOL      0.184151
     92 H37        -4.2260    1.1120    3.3630 h1        1 MOL      0.016578
     93 H38        -1.8690    1.7100    5.0790 hc        1 MOL      0.008099
     94 H39        -3.9920    2.5290    5.8950 hc        1 MOL      0.010669
     95 H40        -3.3560    1.3260    6.9640 hc        1 MOL      0.010669
     96 H41        -1.9310   -0.5830    6.0750 hc        1 MOL      0.011105
     97 H42        -3.3300   -1.0090    5.0820 hc        1 MOL      0.011105
     98 H43        -1.7430   -0.7870    4.3850 hc        1 MOL      0.011105
     99 H44        -5.3140   -0.2420    6.2340 hc        1 MOL      0.085586
    100 H45        -5.7080    1.4830    6.7670 hc        1 MOL      0.085586
    101 H46        -5.8580    0.9200    5.1200 hc        1 MOL      0.085586
    102 N10        -2.6060   -0.2960    1.8420 n         1 MOL     -0.424984
    103 C32        -1.7980   -1.0480    0.7870 c3        1 MOL      0.155774
    104 C33        -2.7310   -1.7610   -0.1330 c         1 MOL      0.453462
    105 O16        -2.5060   -2.8890   -0.5460 o         1 MOL     -0.368295
    106 C34        -0.8330   -2.0550    1.5110 c3        1 MOL     -0.181036
    107 C35         0.3930   -2.4620    0.5960 c         1 MOL      0.700275
    108 O17         0.7420   -1.7890   -0.4370 o         1 MOL     -0.738671
    109 O18         1.1920   -3.3310    0.9200 o         1 MOL     -0.738671
    110 H47        -3.5400   -0.6420    2.0180 hn        1 MOL      0.256601
    111 H48        -1.2190   -0.2980    0.2430 h1        1 MOL      0.060645
    112 H49        -1.3770   -2.9260    1.8470 hc        1 MOL      0.057451
    113 H50        -0.4810   -1.5090    2.3850 hc        1 MOL      0.057451
    114 N11        -3.7330   -1.0010   -0.5870 n         1 MOL     -0.434288
    115 C36        -4.5960   -1.4380   -1.7120 c3        1 MOL      0.273013
    116 C37        -5.2850   -2.8570   -1.5550 c         1 MOL      0.327993
    117 O19        -5.9970   -3.0640   -0.5640 o         1 MOL     -0.504450
    118 C38        -5.6770   -0.4090   -1.9160 c3        1 MOL     -0.292164
    119 C39        -5.2660    1.0290   -2.0980 ca        1 MOL      0.128625
    120 C40        -4.9410    1.5430   -3.3740 ca        1 MOL     -0.164719
    121 C41        -5.3150    1.9080   -0.9930 ca        1 MOL     -0.164719
    122 C42        -4.7330    2.9030   -3.5590 ca        1 MOL     -0.091903
    123 C43        -4.9660    3.2850   -1.1550 ca        1 MOL     -0.091903
    124 C44        -4.7260    3.8230   -2.4480 ca        1 MOL     -0.171267
    125 H51        -4.0650   -0.1850   -0.0930 hn        1 MOL      0.240233
    126 H52        -4.0000   -1.3980   -2.6280 h1        1 MOL      0.010270
    127 H53        -6.2720   -0.3760   -1.0040 hc        1 MOL      0.086949
    128 H54        -6.2090   -0.7320   -2.8170 hc        1 MOL      0.086949
    129 H55        -5.0260    0.8930   -4.2360 ha        1 MOL      0.114414
    130 H56        -5.6370    1.5370   -0.0340 ha        1 MOL      0.114414
    131 H57        -4.5760    3.3850   -4.5120 ha        1 MOL      0.108743
    132 H58        -4.9840    3.9420   -0.3100 ha        1 MOL      0.108743
    133 H59        -4.5370    4.8810   -2.5590 ha        1 MOL      0.146818
    134 N12        -4.9320   -3.8480   -2.4790 n         1 MOL     -0.133593
    135 C45        -5.4860   -5.1860   -2.2960 c3        1 MOL     -0.128032
    136 C46        -4.6640   -6.0060   -1.3490 c         1 MOL      0.435130
    137 O20        -5.1320   -6.9990   -1.0110 o         1 MOL     -0.544840
    138 C47        -5.3440   -5.7430   -3.7370 c3        1 MOL      0.056742
    139 C48        -4.0610   -5.0530   -4.1820 c3        1 MOL     -0.035728
    140 C49        -4.1340   -3.6610   -3.6540 c3        1 MOL     -0.002500
    141 H60        -6.5210   -5.1370   -1.9510 h1        1 MOL      0.122018
    142 H61        -5.3250   -6.8290   -3.8180 hc        1 MOL      0.014310
    143 H62        -6.2520   -5.5130   -4.2860 hc        1 MOL      0.014310
    144 H63        -3.2100   -5.5740   -3.7410 hc        1 MOL      0.016986
    145 H64        -4.0770   -5.0130   -5.2670 hc        1 MOL      0.016986
    146 H65        -3.1480   -3.2270   -3.4850 h1        1 MOL      0.046673
    147 H66        -4.6500   -3.0500   -4.3990 h1        1 MOL      0.046673
    148 N13        -3.5070   -5.6620   -0.7670 n         1 MOL     -0.054349
    149 C50        -2.6150   -6.5320   -0.0080 c3        1 MOL     -0.271774
    150 C51        -3.0060   -6.5700    1.4900 c         1 MOL      0.473549
    151 O21        -2.6620   -7.4780    2.1820 o         1 MOL     -0.539289
    152 C52        -1.1630   -5.8490   -0.0620 c3        1 MOL      0.315005
    153 C53        -0.6160   -5.9420   -1.4520 c3        1 MOL     -0.347762
    154 C54         0.8070   -5.3420   -1.5950 c         1 MOL      0.794459
    155 O22         1.0510   -4.3950   -2.3320 o         1 MOL     -0.769156
    156 O23         1.7950   -5.6840   -0.8780 o         1 MOL     -0.769156
    157 H67        -3.1760   -4.7320   -0.9340 hn        1 MOL      0.097297
    158 H68        -2.6120   -7.5260   -0.4550 h1        1 MOL      0.147486
    159 H69        -0.4970   -6.4790    0.5340 hc        1 MOL     -0.023047
    160 H70        -1.1890   -4.8870    0.4330 hc        1 MOL     -0.023047
    161 H71        -1.3000   -5.2980   -2.0080 hc        1 MOL      0.059398
    162 H72        -0.6410   -6.9720   -1.8220 hc        1 MOL      0.059398
    163 N14        -3.6640   -5.5400    2.0150 n         1 MOL     -0.225905
    164 C55        -3.9380   -5.3550    3.4090 c3        1 MOL     -0.062243
    165 H73        -3.3830   -6.0930    3.9890 h1        1 MOL      0.049478
    166 H74        -3.6340   -4.3540    3.7110 h1        1 MOL      0.049478
    167 H75        -5.0060   -5.4810    3.5900 h1        1 MOL      0.049478
    168 H76        -3.7350   -4.7800    1.3430 hn        1 MOL      0.176544
    169 Ca1         2.9990   -3.2660   -0.9680 Ca        1 MOL      1.755309
    170 O24         3.2190   -0.9640    0.3640 oh        1 MOL     -0.829114
    171 H77         3.7650   -0.1740    0.2740 ho        1 MOL      0.406111
    172 H78         2.3340   -0.6310    0.5110 ho        1 MOL      0.406111
    173 O25         5.6120   -2.8220   -1.4530 oh        1 MOL     -0.829114
    174 H79         5.4330   -2.2160   -2.1710 ho        1 MOL      0.406111
    175 H80         6.1470   -2.3170   -0.8350 ho        1 MOL      0.406111
    176 O26         4.3120   -5.2500   -2.2730 oh        1 MOL     -0.829114
    177 H81         4.0090   -5.8680   -2.9330 ho        1 MOL      0.406111
    178 H82         5.2440   -5.4380   -2.1670 ho        1 MOL      0.406111
    179 O27         4.2790   -4.3710    1.2660 oh        1 MOL     -0.829114
    180 H83         3.8870   -4.8290    2.0050 ho        1 MOL      0.406111
    181 H84         5.1910   -4.6440    1.2620 ho        1 MOL      0.406111
@<TRIPOS>BOND
     1    1    2 1   
     2    1    4 1   
     3    1    5 1   
     4    1    6 1   
     5    2    3 2   
     6    2    7 1   
     7    7    8 1   
     8    7   15 1   
     9    8    9 1   
    10    8   11 1   
    11    8   16 1   
    12    9   10 2   
    13    9   19 1   
    14   11   12 1   
    15   11   17 1   
    16   11   18 1   
    17   12   13 1   
    18   12   14 1   
    19   19   20 1   
    20   19   24 1   
    21   20   21 1   
    22   20   23 1   
    23   20   25 1   
    24   21   22 2   
    25   21   29 1   
    26   23   26 1   
    27   23   27 1   
    28   23   28 1   
    29   29   30 1   
    30   29   37 1   
    31   30   31 1   
    32   30   33 1   
    33   30   38 1   
    34   31   32 2   
    35   31   41 1   
    36   33   34 1   
    37   33   39 1   
    38   33   40 1   
    39   34   35 1   
    40   34   36 1   
    41   41   42 1   
    42   41   45 1   
    43   42   43 1   
    44   42   46 1   
    45   42   47 1   
    46   43   44 2   
    47   43   48 1   
    48   48   49 1   
    49   48   56 1   
    50   49   50 1   
    51   49   52 1   
    52   49   57 1   
    53   50   51 2   
    54   50   62 1   
    55   52   53 1   
    56   52   58 1   
    57   52   59 1   
    58   53   54 1   
    59   53   55 2   
    60   54   60 1   
    61   54   61 1   
    62   62   63 1   
    63   62   66 1   
    64   63   64 1   
    65   63   67 1   
    66   63   68 1   
    67   64   65 2   
    68   64   69 1   
    69   69   70 1   
    70   69   76 1   
    71   70   71 1   
    72   70   73 1   
    73   70   77 1   
    74   71   72 2   
    75   71   83 1   
    76   73   74 1   
    77   73   75 1   
    78   73   78 1   
    79   74   80 1   
    80   74   81 1   
    81   74   82 1   
    82   75   79 1   
    83   83   84 1   
    84   83   91 1   
    85   84   85 1   
    86   84   87 1   
    87   84   92 1   
    88   85   86 2   
    89   85  102 1   
    90   87   88 1   
    91   87   89 1   
    92   87   93 1   
    93   88   90 1   
    94   88   94 1   
    95   88   95 1   
    96   89   96 1   
    97   89   97 1   
    98   89   98 1   
    99   90   99 1   
   100   90  100 1   
   101   90  101 1   
   102  102  103 1   
   103  102  110 1   
   104  103  104 1   
   105  103  106 1   
   106  103  111 1   
   107  104  105 2   
   108  104  114 1   
   109  106  107 1   
   110  106  112 1   
   111  106  113 1   
   112  107  108 1   
   113  107  109 1   
   114  114  115 1   
   115  114  125 1   
   116  115  116 1   
   117  115  118 1   
   118  115  126 1   
   119  116  117 2   
   120  116  134 1   
   121  118  119 1   
   122  118  127 1   
   123  118  128 1   
   124  119  120 ar  
   125  119  121 ar  
   126  120  122 ar  
   127  120  129 1   
   128  121  123 ar  
   129  121  130 1   
   130  122  124 ar  
   131  122  131 1   
   132  123  124 ar  
   133  123  132 1   
   134  124  133 1   
   135  134  135 1   
   136  134  140 1   
   137  135  136 1   
   138  135  138 1   
   139  135  141 1   
   140  136  137 2   
   141  136  148 1   
   142  138  139 1   
   143  138  142 1   
   144  138  143 1   
   145  139  140 1   
   146  139  144 1   
   147  139  145 1   
   148  140  146 1   
   149  140  147 1   
   150  148  149 1   
   151  148  157 1   
   152  149  150 1   
   153  149  152 1   
   154  149  158 1   
   155  150  151 2   
   156  150  163 1   
   157  152  153 1   
   158  152  159 1   
   159  152  160 1   
   160  153  154 1   
   161  153  161 1   
   162  153  162 1   
   163  154  155 1   
   164  154  156 1   
   165  163  164 1   
   166  163  168 1   
   167  164  165 1   
   168  164  166 1   
   169  164  167 1   
   170  170  171 1   
   171  170  172 1   
   172  173  174 1   
   173  173  175 1   
   174  176  177 1   
   175  176  178 1   
   176  179  180 1   
   177  179  181 1   
@<TRIPOS>SUBSTRUCTURE
     1 MOL         1 TEMP              0 ****  ****    0 ROOT
