@<TRIPOS>MOLECULE
MOL
  192   187     1     0     0
SMALL
resp


@<TRIPOS>ATOM
      1 C1         -3.7770   -4.3600    2.2840 c3        1 MOL     -0.404590
      2 C2         -2.5750   -4.0730    1.3980 c         1 MOL      0.599894
      3 O1         -2.1620   -2.9520    1.3430 o         1 MOL     -0.456943
      4 H1         -4.6930   -4.1420    1.7350 hc        1 MOL      0.088320
      5 H2         -3.7720   -5.4110    2.5750 hc        1 MOL      0.088320
      6 H3         -3.7300   -3.7350    3.1750 hc        1 MOL      0.088320
      7 N1         -1.9910   -5.1210    0.7770 n         1 MOL     -0.434844
      8 C3         -0.8790   -5.1250   -0.2360 c3        1 MOL     -0.363022
      9 C4          0.4720   -4.6430    0.2940 c         1 MOL      0.753570
     10 O2          1.3590   -4.4470   -0.5060 o         1 MOL     -0.587888
     11 C5         -1.2180   -4.4290   -1.5370 c3        1 MOL      0.008261
     12 C6         -2.6320   -4.7890   -2.0600 c         1 MOL      0.695784
     13 O3         -2.7900   -5.9840   -2.3790 o         1 MOL     -0.725583
     14 O4         -3.5630   -3.9530   -1.9810 o         1 MOL     -0.725583
     15 H4         -2.4520   -6.0030    0.8960 hn        1 MOL      0.292393
     16 H5         -0.7710   -6.1760   -0.5170 h1        1 MOL      0.183832
     17 H6         -0.4730   -4.5780   -2.3180 hc        1 MOL      0.050958
     18 H7         -1.2100   -3.3490   -1.3600 hc        1 MOL      0.050958
     19 N2          0.4950   -4.3120    1.5940 n         1 MOL     -0.396374
     20 C7          1.6360   -3.7390    2.2880 c3        1 MOL     -0.467591
     21 C8          2.7300   -4.7480    2.4330 c         1 MOL      0.451916
     22 O5          2.5530   -5.9860    2.4920 o         1 MOL     -0.580879
     23 C9          1.2290   -3.2070    3.6670 c3        1 MOL      0.383795
     24 C10         0.6450   -4.3120    4.5560 c3        1 MOL      0.220114
     25 C11         0.4230   -1.9150    3.5700 c3        1 MOL     -0.031276
     26 C12         0.4370   -3.9710    6.0380 c3        1 MOL     -0.451956
     27 H8         -0.3370   -4.5400    2.1210 hn        1 MOL      0.245730
     28 H9          2.0320   -2.9180    1.6830 h1        1 MOL      0.190752
     29 H10         2.1460   -2.8040    4.0900 hc        1 MOL     -0.054598
     30 H11         1.3410   -5.1580    4.5620 hc        1 MOL     -0.023481
     31 H12        -0.3030   -4.6500    4.1500 hc        1 MOL     -0.023481
     32 H13         0.9680   -1.1100    3.0750 hc        1 MOL      0.003909
     33 H14        -0.5550   -2.0260    3.0860 hc        1 MOL      0.003909
     34 H15         0.2750   -1.5220    4.5780 hc        1 MOL      0.003909
     35 H16         1.4410   -3.7690    6.4090 hc        1 MOL      0.097229
     36 H17        -0.1330   -3.0440    6.0600 hc        1 MOL      0.097229
     37 H18         0.0040   -4.8960    6.4210 hc        1 MOL      0.097229
     38 N3          3.9460   -4.3260    2.6850 n         1 MOL     -0.157119
     39 C13         4.4600   -2.9400    2.4760 c3        1 MOL     -0.127771
     40 C14         4.6160   -2.5680    0.9350 c         1 MOL      0.414052
     41 O6          4.6080   -1.3960    0.5820 o         1 MOL     -0.496236
     42 C15         5.6460   -2.6520    3.3120 c3        1 MOL     -0.185863
     43 C16         5.4920   -3.3450    4.6760 c         1 MOL      0.657172
     44 O7          6.1240   -4.4040    4.9560 o         1 MOL     -0.696417
     45 O8          4.5770   -2.9590    5.5160 o         1 MOL     -0.696417
     46 H19         4.6540   -5.0360    2.7740 hn        1 MOL      0.246384
     47 H20         3.7170   -2.2310    2.8400 h1        1 MOL      0.114595
     48 H21         5.7010   -1.5860    3.5200 hc        1 MOL      0.048454
     49 H22         6.5340   -2.9490    2.7510 hc        1 MOL      0.048454
     50 N4          4.7090   -3.5520    0.0670 n         1 MOL     -0.137733
     51 C17         4.7550   -3.3480   -1.4020 c3        1 MOL     -0.314667
     52 C18         6.1380   -2.8440   -1.7590 c         1 MOL      0.536413
     53 O9          7.1890   -3.0720   -1.1650 o         1 MOL     -0.568606
     54 H23         4.7800   -4.4930    0.4200 hn        1 MOL      0.225235
     55 H24         3.9370   -2.6620   -1.6540 h1        1 MOL      0.154260
     56 H25         4.7150   -4.2840   -1.9570 h1        1 MOL      0.154260
     57 N5          6.2150   -1.9450   -2.7640 n         1 MOL     -0.383595
     58 C19         7.3240   -1.0880   -3.1940 c3        1 MOL      0.128195
     59 C20         7.8640   -0.2500   -2.0990 c         1 MOL      0.371606
     60 O10         9.0510    0.0630   -2.0680 o         1 MOL     -0.570228
     61 C21         6.7670   -0.2050   -4.3200 c3        1 MOL     -0.346042
     62 C22         5.4260    0.3250   -4.0750 c         1 MOL      0.827908
     63 O11         4.4480   -0.2090   -4.5500 o         1 MOL     -0.739012
     64 O12         5.3150    1.3500   -3.3480 o         1 MOL     -0.739012
     65 H26         5.3510   -1.7480   -3.2480 hn        1 MOL      0.196508
     66 H27         8.1200   -1.7500   -3.5190 h1        1 MOL      0.054459
     67 H28         6.7690   -0.9570   -5.1210 hc        1 MOL      0.066478
     68 H29         7.4690    0.5750   -4.6130 hc        1 MOL      0.066478
     69 N6          7.0330    0.1520   -1.1540 n         1 MOL      0.167541
     70 C23         7.3770    0.7810    0.0980 c3        1 MOL     -0.374017
     71 C24         7.3460    2.3060    0.1920 c         1 MOL      0.603553
     72 O13         7.7140    2.9170    1.1900 o         1 MOL     -0.572990
     73 H30         6.0520   -0.1100   -1.1950 hn        1 MOL      0.101378
     74 H31         8.3630    0.3970    0.3800 h1        1 MOL      0.123993
     75 H32         6.6250    0.4700    0.8240 h1        1 MOL      0.123993
     76 N7          6.7810    2.9430   -0.8400 n         1 MOL     -0.172734
     77 C25         6.0950    4.2400   -0.7700 c3        1 MOL     -0.068401
     78 C26         5.0300    4.5380    0.3420 c         1 MOL      0.260807
     79 O14         4.3860    5.5750    0.3950 o         1 MOL     -0.487304
     80 C27         7.0550    5.4220   -0.8730 c3        1 MOL      0.288341
     81 C28         7.8020    5.5580   -2.2680 c3        1 MOL     -0.354980
     82 C29         8.8520    4.3890   -2.5370 c         1 MOL      0.636908
     83 N8         10.0470    4.6890   -2.1860 n         1 MOL     -0.767529
     84 O15         8.6470    3.4240   -3.2320 o         1 MOL     -0.501393
     85 H33         6.7140    2.4360   -1.7110 hn        1 MOL      0.101023
     86 H34         5.4580    4.2650   -1.6460 h1        1 MOL      0.150213
     87 H35         7.8390    5.2720   -0.1300 hc        1 MOL     -0.065114
     88 H36         6.4780    6.3160   -0.6500 hc        1 MOL     -0.065114
     89 H37         8.2460    6.5500   -2.2970 hc        1 MOL      0.076281
     90 H38         7.0640    5.4480   -3.0700 hc        1 MOL      0.076281
     91 H39        10.2220    5.6410   -1.8870 hn        1 MOL      0.350297
     92 H40        10.7680    3.9890   -2.2740 hn        1 MOL      0.350297
     93 N9          4.7360    3.6470    1.2640 n         1 MOL     -0.028759
     94 C30         3.8970    3.8550    2.4150 c3        1 MOL     -0.129700
     95 C31         2.4170    3.6120    2.0240 c         1 MOL      0.621734
     96 O16         1.5850    4.2540    2.5700 o         1 MOL     -0.564539
     97 C32         4.2850    2.8470    3.5150 c3        1 MOL      0.142208
     98 C33         4.1440    1.3800    3.1090 c3        1 MOL     -0.135294
     99 C34         5.7180    3.1250    4.0130 c3        1 MOL     -0.135294
    100 H41         5.2030    2.7530    1.2810 hn        1 MOL      0.110324
    101 H42         3.9920    4.8630    2.8090 h1        1 MOL      0.098709
    102 H43         3.6730    3.1460    4.3700 hc        1 MOL     -0.005235
    103 H44         3.1180    1.0010    3.0740 hc        1 MOL      0.031867
    104 H45         4.6470    1.2950    2.1420 hc        1 MOL      0.031867
    105 H46         4.6660    0.7580    3.8230 hc        1 MOL      0.031867
    106 H47         5.7930    4.1140    4.4730 hc        1 MOL      0.031867
    107 H48         6.0070    2.5020    4.8600 hc        1 MOL      0.031867
    108 H49         6.5100    3.0150    3.2730 hc        1 MOL      0.031867
    109 N10         2.0480    2.7580    1.0570 n         1 MOL     -0.475404
    110 C35         0.7300    2.2900    0.7790 c3        1 MOL      0.072421
    111 C36        -0.1050    3.2210   -0.0470 c         1 MOL      0.730180
    112 O17         0.4150    4.0390   -0.8110 o         1 MOL     -0.546408
    113 C37         0.8220    0.8950    0.1220 c3        1 MOL      0.133732
    114 C38        -0.3850    0.0540    0.5330 c         1 MOL      0.342290
    115 N11        -0.6330   -1.1090   -0.1170 n         1 MOL     -0.293625
    116 O18        -1.2070    0.3400    1.4420 o         1 MOL     -0.535818
    117 H50         2.7810    2.2640    0.5670 hn        1 MOL      0.204835
    118 H51         0.2630    2.2550    1.7710 h1        1 MOL      0.053108
    119 H52         1.6740    0.3300    0.5010 hc        1 MOL     -0.007610
    120 H53         0.7740    0.8600   -0.9640 hc        1 MOL     -0.007610
    121 H54         0.1230   -1.4390   -0.6850 hn        1 MOL      0.211212
    122 H55        -1.3670   -1.7410    0.1760 hn        1 MOL      0.211212
    123 N12        -1.4440    2.9790   -0.0260 n         1 MOL     -0.783066
    124 C39        -2.4830    3.7150   -0.7600 c3        1 MOL      0.388078
    125 C40        -3.7930    3.4290   -0.1260 c         1 MOL      0.606527
    126 O19        -4.0720    2.3170    0.3510 o         1 MOL     -0.516748
    127 C41        -2.3980    3.4570   -2.2650 c3        1 MOL     -0.387194
    128 C42        -2.1610    1.9790   -2.6340 ca        1 MOL      0.256438
    129 C43        -1.0170    1.5840   -3.2580 ca        1 MOL     -0.251913
    130 C44        -3.2190    1.0610   -2.4080 ca        1 MOL     -0.251913
    131 C45        -0.8770    0.1760   -3.6270 ca        1 MOL     -0.144686
    132 C46        -3.0830   -0.3150   -2.7640 ca        1 MOL     -0.144686
    133 C47        -1.9390   -0.7010   -3.4510 ca        1 MOL      0.031547
    134 O20        -1.9330   -2.0030   -3.8270 oh        1 MOL     -0.309070
    135 H56        -1.7620    2.1450    0.4450 hn        1 MOL      0.303255
    136 H57        -2.3780    4.7890   -0.6270 h1        1 MOL      0.015193
    137 H58        -1.4870    3.9520   -2.5980 hc        1 MOL      0.101155
    138 H59        -3.3450    3.7320   -2.7200 hc        1 MOL      0.101155
    139 H60        -0.1510    2.2300   -3.3140 ha        1 MOL      0.162994
    140 H61        -4.0930    1.3630   -1.8390 ha        1 MOL      0.162994
    141 H62         0.0660   -0.0970   -4.0830 ha        1 MOL      0.157677
    142 H63        -3.8050   -1.1010   -2.5510 ha        1 MOL      0.157677
    143 H64        -1.1470   -2.3910   -4.2410 ho        1 MOL      0.295155
    144 N13        -4.7230    4.4090   -0.2720 n         1 MOL     -0.671870
    145 C48        -6.0570    4.3920    0.2640 c3        1 MOL      0.099165
    146 C49        -7.1440    3.6840   -0.5670 c         1 MOL      0.613136
    147 O21        -7.6650    4.1040   -1.5850 o         1 MOL     -0.593347
    148 C50        -6.5440    5.8620    0.3910 c3        1 MOL      0.201233
    149 C51        -7.7120    5.9730    1.3630 c3        1 MOL     -0.167491
    150 C52        -8.2080    7.4090    1.4770 c         1 MOL      0.667979
    151 O22        -8.7900    7.9600    0.5060 o         1 MOL     -0.714688
    152 O23        -7.8630    8.0740    2.4750 o         1 MOL     -0.714688
    153 H65        -4.4660    5.2330   -0.8090 hn        1 MOL      0.299288
    154 H66        -5.9760    3.9670    1.2630 h1        1 MOL      0.109262
    155 H67        -6.7840    6.3660   -0.5460 hc        1 MOL     -0.024665
    156 H68        -5.7420    6.4560    0.8510 hc        1 MOL     -0.024665
    157 H69        -7.3460    5.5800    2.3010 hc        1 MOL     -0.008857
    158 H70        -8.5670    5.3730    1.0300 hc        1 MOL     -0.008857
    159 N14        -7.7540    2.6000   -0.1220 n         1 MOL     -0.374444
    160 C53        -7.4380    1.7370    1.0010 c3        1 MOL     -0.256102
    161 C54        -8.5940    1.6920    1.9860 c         1 MOL      0.677771
    162 O24        -9.5810    2.3070    1.7260 o         1 MOL     -0.523056
    163 C55        -7.1490    0.2810    0.5120 c3        1 MOL      0.265923
    164 C56        -8.1880   -0.3300   -0.4960 c3        1 MOL     -0.510066
    165 C57        -7.6930   -1.6050   -1.1770 c         1 MOL      0.927398
    166 O25        -6.9810   -1.5540   -2.2040 o         1 MOL     -0.820215
    167 O26        -8.0320   -2.7190   -0.7280 o         1 MOL     -0.820215
    168 H71        -8.5610    2.3380   -0.6730 hn        1 MOL      0.279781
    169 H72        -6.5390    2.1380    1.4670 h1        1 MOL      0.062146
    170 H73        -7.1110   -0.4650    1.3050 hc        1 MOL     -0.008004
    171 H74        -6.1310    0.2900    0.1450 hc        1 MOL     -0.008004
    172 H75        -8.2140    0.4360   -1.2740 hc        1 MOL      0.120959
    173 H76        -9.1720   -0.3290   -0.0410 hc        1 MOL      0.120959
    174 N15        -8.3150    1.1810    3.2090 n         1 MOL     -0.415339
    175 C58        -9.0840    1.1790    4.5250 c3        1 MOL     -0.334524
    176 H77       -10.1540    1.1630    4.3200 h1        1 MOL      0.144486
    177 H78        -8.8110    0.2960    5.1040 h1        1 MOL      0.144486
    178 H79        -8.8370    2.0760    5.0920 h1        1 MOL      0.144486
    179 H80        -7.4160    0.7340    3.0890 hn        1 MOL      0.260194
    180 Ca1        -6.2830   -4.1220   -1.9060 Ca        1 MOL      1.659229
    181 O27        -4.7510   -2.4680   -0.1210 oh        1 MOL     -0.841759
    182 H81        -4.6950   -1.6290    0.3410 ho        1 MOL      0.407255
    183 H82        -3.8440   -2.7430   -0.2370 ho        1 MOL      0.407255
    184 O28        -4.9170   -3.3390   -4.1650 oh        1 MOL     -0.841759
    185 H83        -4.6640   -2.9920   -5.0190 ho        1 MOL      0.407255
    186 H84        -4.0970   -3.3510   -3.6680 ho        1 MOL      0.407255
    187 O29        -7.6970   -4.4860   -4.2610 oh        1 MOL     -0.841759
    188 H85        -8.4520   -4.9000   -4.6690 ho        1 MOL      0.407255
    189 H86        -7.2490   -4.0320   -4.9830 ho        1 MOL      0.407255
    190 O30        -5.0710   -6.6040   -3.2110 oh        1 MOL     -0.841759
    191 H87        -4.1980   -6.5210   -2.8390 ho        1 MOL      0.407255
    192 H88        -5.3270   -7.5110   -3.0040 ho        1 MOL      0.407255
@<TRIPOS>BOND
     1    1    2 1   
     2    1    4 1   
     3    1    5 1   
     4    1    6 1   
     5    2    3 2   
     6    2    7 1   
     7    7    8 1   
     8    7   15 1   
     9    8    9 1   
    10    8   11 1   
    11    8   16 1   
    12    9   10 2   
    13    9   19 1   
    14   11   12 1   
    15   11   17 1   
    16   11   18 1   
    17   12   13 1   
    18   12   14 1   
    19   19   20 1   
    20   19   27 1   
    21   20   21 1   
    22   20   23 1   
    23   20   28 1   
    24   21   22 2   
    25   21   38 1   
    26   23   24 1   
    27   23   25 1   
    28   23   29 1   
    29   24   26 1   
    30   24   30 1   
    31   24   31 1   
    32   25   32 1   
    33   25   33 1   
    34   25   34 1   
    35   26   35 1   
    36   26   36 1   
    37   26   37 1   
    38   38   39 1   
    39   38   46 1   
    40   39   40 1   
    41   39   42 1   
    42   39   47 1   
    43   40   41 2   
    44   40   50 1   
    45   42   43 1   
    46   42   48 1   
    47   42   49 1   
    48   43   44 1   
    49   43   45 1   
    50   50   51 1   
    51   50   54 1   
    52   51   52 1   
    53   51   55 1   
    54   51   56 1   
    55   52   53 2   
    56   52   57 1   
    57   57   58 1   
    58   57   65 1   
    59   58   59 1   
    60   58   61 1   
    61   58   66 1   
    62   59   60 2   
    63   59   69 1   
    64   61   62 1   
    65   61   67 1   
    66   61   68 1   
    67   62   63 1   
    68   62   64 1   
    69   69   70 1   
    70   69   73 1   
    71   70   71 1   
    72   70   74 1   
    73   70   75 1   
    74   71   72 2   
    75   71   76 1   
    76   76   77 1   
    77   76   85 1   
    78   77   78 1   
    79   77   80 1   
    80   77   86 1   
    81   78   79 2   
    82   78   93 1   
    83   80   81 1   
    84   80   87 1   
    85   80   88 1   
    86   81   82 1   
    87   81   89 1   
    88   81   90 1   
    89   82   83 1   
    90   82   84 2   
    91   83   91 1   
    92   83   92 1   
    93   93   94 1   
    94   93  100 1   
    95   94   95 1   
    96   94   97 1   
    97   94  101 1   
    98   95   96 2   
    99   95  109 1   
   100   97   98 1   
   101   97   99 1   
   102   97  102 1   
   103   98  103 1   
   104   98  104 1   
   105   98  105 1   
   106   99  106 1   
   107   99  107 1   
   108   99  108 1   
   109  109  110 1   
   110  109  117 1   
   111  110  111 1   
   112  110  113 1   
   113  110  118 1   
   114  111  112 2   
   115  111  123 1   
   116  113  114 1   
   117  113  119 1   
   118  113  120 1   
   119  114  115 1   
   120  114  116 2   
   121  115  121 1   
   122  115  122 1   
   123  123  124 1   
   124  123  135 1   
   125  124  125 1   
   126  124  127 1   
   127  124  136 1   
   128  125  126 2   
   129  125  144 1   
   130  127  128 1   
   131  127  137 1   
   132  127  138 1   
   133  128  129 ar  
   134  128  130 ar  
   135  129  131 ar  
   136  129  139 1   
   137  130  132 ar  
   138  130  140 1   
   139  131  133 ar  
   140  131  141 1   
   141  132  133 ar  
   142  132  142 1   
   143  133  134 1   
   144  134  143 1   
   145  144  145 1   
   146  144  153 1   
   147  145  146 1   
   148  145  148 1   
   149  145  154 1   
   150  146  147 2   
   151  146  159 1   
   152  148  149 1   
   153  148  155 1   
   154  148  156 1   
   155  149  150 1   
   156  149  157 1   
   157  149  158 1   
   158  150  151 1   
   159  150  152 1   
   160  159  160 1   
   161  159  168 1   
   162  160  161 1   
   163  160  163 1   
   164  160  169 1   
   165  161  162 2   
   166  161  174 1   
   167  163  164 1   
   168  163  170 1   
   169  163  171 1   
   170  164  165 1   
   171  164  172 1   
   172  164  173 1   
   173  165  166 1   
   174  165  167 1   
   175  174  175 1   
   176  174  179 1   
   177  175  176 1   
   178  175  177 1   
   179  175  178 1   
   180  181  182 1   
   181  181  183 1   
   182  184  185 1   
   183  184  186 1   
   184  187  188 1   
   185  187  189 1   
   186  190  191 1   
   187  190  192 1   
@<TRIPOS>SUBSTRUCTURE
     1 MOL         1 TEMP              0 ****  ****    0 ROOT
