@<TRIPOS>MOLECULE
MOL
  175   173     1     0     0
SMALL
resp


@<TRIPOS>ATOM
      1 C1         -7.3230    7.6180    1.3120 c3        1 MOL     -0.404602
      2 C2         -8.1430    6.5580    0.6180 c         1 MOL      0.764528
      3 O1         -8.0840    6.3590   -0.5880 o         1 MOL     -0.607020
      4 H1         -7.1970    7.3490    2.3610 hc        1 MOL      0.103691
      5 H2         -6.3450    7.6910    0.8370 hc        1 MOL      0.103691
      6 H3         -7.8350    8.5770    1.2430 hc        1 MOL      0.103691
      7 N1         -8.9810    5.7110    1.2840 n         1 MOL     -0.709098
      8 C3         -9.7790    4.6750    0.6070 c3        1 MOL      0.449206
      9 C4         -9.0460    3.4330    0.1830 c         1 MOL      0.467277
     10 O2         -9.6200    2.4490   -0.3590 o         1 MOL     -0.470384
     11 C5        -11.1240    4.3570    1.3620 c3        1 MOL     -0.424117
     12 C6        -12.2680    3.9520    0.4170 c         1 MOL      0.698405
     13 O3        -12.9320    4.7710   -0.2120 o         1 MOL     -0.695477
     14 O4        -12.3950    2.7320    0.0760 o         1 MOL     -0.695477
     15 H4         -8.9000    5.6870    2.2960 hn        1 MOL      0.312334
     16 H5        -10.0720    5.1810   -0.3070 h1        1 MOL      0.068910
     17 H6        -11.4020    5.1820    2.0260 hc        1 MOL      0.055767
     18 H7        -10.8650    3.5330    2.0220 hc        1 MOL      0.055767
     19 N2         -7.7140    3.5040    0.2220 n         1 MOL     -0.695167
     20 C7         -6.7760    2.7730   -0.5600 c3        1 MOL      0.607499
     21 C8         -5.4330    2.2590    0.0620 c         1 MOL      0.348579
     22 O5         -4.8430    3.0010    0.8130 o         1 MOL     -0.523625
     23 C9         -6.5170    3.5760   -1.9030 c3        1 MOL     -0.268159
     24 H8         -7.3700    4.3590    0.6150 hn        1 MOL      0.262984
     25 H9         -7.2920    1.8660   -0.8760 h1        1 MOL     -0.105010
     26 H10        -7.4780    3.7880   -2.3680 hc        1 MOL      0.070179
     27 H11        -5.9390    4.4880   -1.7360 hc        1 MOL      0.070179
     28 H12        -5.9560    2.9710   -2.6080 hc        1 MOL      0.070179
     29 N3         -4.8130    1.1830   -0.4300 n         1 MOL     -0.298041
     30 C10        -5.2930    0.1130   -1.3350 c3        1 MOL     -0.163029
     31 C11        -5.4500   -1.1540   -0.5260 c         1 MOL      0.566912
     32 O6         -4.6760   -1.5050    0.4230 o         1 MOL     -0.560201
     33 C12        -4.3820   -0.1120   -2.5700 c3        1 MOL     -0.183229
     34 C13        -2.9260   -0.3980   -2.2860 c         1 MOL      0.691827
     35 O7         -2.3980   -1.5220   -2.6430 o         1 MOL     -0.708272
     36 O8         -2.1870    0.3300   -1.5880 o         1 MOL     -0.708272
     37 H13        -3.8970    1.0050   -0.0390 hn        1 MOL      0.270308
     38 H14        -6.2990    0.2620   -1.7070 h1        1 MOL      0.128995
     39 H15        -4.5240    0.7420   -3.2260 hc        1 MOL      0.055753
     40 H16        -4.7090   -0.9470   -3.2020 hc        1 MOL      0.055753
     41 N4         -6.4020   -1.9760   -0.9580 n         1 MOL     -0.416298
     42 C14        -6.6640   -3.2540   -0.2920 c3        1 MOL      0.085403
     43 C15        -6.5100   -4.5010   -1.1340 c         1 MOL      0.510079
     44 O9         -7.4930   -5.1010   -1.4940 o         1 MOL     -0.567098
     45 H17        -7.0380   -1.8130   -1.7180 hn        1 MOL      0.313555
     46 H18        -7.7240   -3.2390   -0.0440 h1        1 MOL      0.036185
     47 H19        -6.0820   -3.3040    0.6330 h1        1 MOL      0.036185
     48 N5         -5.3600   -5.0490   -1.4090 n         1 MOL     -0.490602
     49 C16        -4.0490   -4.5270   -0.9260 c3        1 MOL      0.137387
     50 C17        -3.7920   -5.0470    0.5620 c         1 MOL      0.552354
     51 O10        -3.8570   -6.2610    0.7710 o         1 MOL     -0.548493
     52 C18        -3.0240   -5.0820   -1.9340 c3        1 MOL     -0.403600
     53 C19        -1.6950   -4.4480   -1.7410 c         1 MOL      0.740290
     54 N6         -0.8370   -4.6640   -2.7170 n         1 MOL     -0.639208
     55 O11        -1.5260   -3.6010   -0.8610 o         1 MOL     -0.690717
     56 H20        -5.3350   -5.9690   -1.8320 hn        1 MOL      0.325668
     57 H21        -4.0140   -3.4370   -0.9780 h1        1 MOL      0.102668
     58 H22        -3.3680   -4.6080   -2.8560 hc        1 MOL      0.109458
     59 H23        -2.9950   -6.1690   -1.8670 hc        1 MOL      0.109458
     60 H24        -1.0150   -5.4290   -3.3490 hn        1 MOL      0.324282
     61 H25         0.0220   -4.1350   -2.7350 hn        1 MOL      0.324282
     62 N7         -3.5240   -4.0810    1.4780 n         1 MOL     -0.274181
     63 C20        -3.0210   -4.3420    2.8430 c3        1 MOL     -0.463882
     64 C21        -1.6490   -4.9420    2.9310 c         1 MOL      0.607938
     65 O12        -1.4040   -5.5530    3.9760 o         1 MOL     -0.561906
     66 H26        -3.5160   -3.1280    1.1360 hn        1 MOL      0.302068
     67 H27        -3.6870   -5.0720    3.2960 h1        1 MOL      0.188276
     68 H28        -2.9880   -3.3770    3.3440 h1        1 MOL      0.188276
     69 N8         -0.7440   -4.8840    1.9000 n         1 MOL     -0.182421
     70 C22         0.6770   -5.1360    1.9060 c3        1 MOL     -0.100975
     71 C23         1.4410   -3.8840    1.6780 c         1 MOL      0.392705
     72 O13         0.9360   -2.9110    1.0410 o         1 MOL     -0.567103
     73 C24         1.1080   -6.2930    0.9180 c3        1 MOL      0.460339
     74 C25         0.3870   -7.5870    1.2830 c3        1 MOL     -0.597218
     75 O14         0.6500   -5.9840   -0.3700 oh        1 MOL     -0.638285
     76 H29        -1.1330   -4.6420    0.9940 hn        1 MOL      0.169878
     77 H30         0.9470   -5.4440    2.9170 h1        1 MOL      0.042685
     78 H31         2.1930   -6.3820    0.9260 h1        1 MOL     -0.025461
     79 H32         1.0880   -5.1560   -0.5790 ho        1 MOL      0.442037
     80 H33        -0.6840   -7.4140    1.1660 hc        1 MOL      0.155681
     81 H34         0.6690   -8.3270    0.5390 hc        1 MOL      0.155681
     82 H35         0.5330   -7.8830    2.3200 hc        1 MOL      0.155681
     83 N9          2.6270   -3.7860    2.2930 n         1 MOL     -0.202849
     84 C26         3.5090   -2.7120    2.0750 c3        1 MOL      0.081897
     85 C27         4.3150   -2.9250    0.7740 c         1 MOL      0.344316
     86 O15         5.1900   -3.8010    0.6860 o         1 MOL     -0.588758
     87 C28         4.3630   -2.5860    3.3700 c3        1 MOL      0.117684
     88 C29         5.3480   -1.3820    3.3500 c3        1 MOL     -0.016519
     89 C30         3.6320   -2.6360    4.7460 c3        1 MOL     -0.275465
     90 C31         4.7960   -0.0120    2.9200 c3        1 MOL     -0.122833
     91 H36         3.0400   -4.6360    2.6660 hn        1 MOL      0.212829
     92 H37         2.9340   -1.7950    1.9680 h1        1 MOL      0.056908
     93 H38         4.9910   -3.4770    3.4250 hc        1 MOL     -0.011216
     94 H39         6.1820   -1.6200    2.6750 hc        1 MOL     -0.001962
     95 H40         5.8240   -1.2140    4.3190 hc        1 MOL     -0.001962
     96 H41         3.1400   -1.6980    4.9630 hc        1 MOL      0.063534
     97 H42         2.8700   -3.4060    4.8480 hc        1 MOL      0.063534
     98 H43         4.4030   -2.8090    5.5020 hc        1 MOL      0.063534
     99 H44         4.5760    0.0540    1.8540 hc        1 MOL      0.034334
    100 H45         3.9190    0.2110    3.5320 hc        1 MOL      0.034334
    101 H46         5.4980    0.7840    3.1560 hc        1 MOL      0.034334
    102 N10         4.0970   -2.1240   -0.2890 n         1 MOL      0.020479
    103 C32         4.5960   -2.2950   -1.6310 c3        1 MOL      0.014010
    104 C33         5.6860   -1.2520   -1.9850 c         1 MOL      0.428005
    105 O16         6.1390   -1.1840   -3.1160 o         1 MOL     -0.518090
    106 C34         3.4750   -2.1400   -2.6340 c3        1 MOL     -0.168964
    107 C35         2.1350   -2.8880   -2.2980 c         1 MOL      0.864707
    108 O17         2.2370   -3.9140   -1.6190 o         1 MOL     -0.760695
    109 O18         1.0720   -2.4870   -2.7840 o         1 MOL     -0.760695
    110 H47         3.4360   -1.3820   -0.1290 hn        1 MOL      0.040440
    111 H48         4.9590   -3.3170   -1.7280 h1        1 MOL      0.098860
    112 H49         3.7870   -2.4760   -3.6190 hc        1 MOL      0.030720
    113 H50         3.1480   -1.1090   -2.6470 hc        1 MOL      0.030720
    114 N11         6.0840   -0.3330   -1.0450 n         1 MOL     -0.488023
    115 C36         7.1470    0.6690   -1.1560 c3        1 MOL      0.474497
    116 C37         6.7010    1.9900   -0.5050 c         1 MOL      0.484989
    117 O19         6.1280    1.9730    0.5930 o         1 MOL     -0.548261
    118 C38         8.4900    0.1150   -0.6180 c3        1 MOL     -0.437456
    119 C39         9.5610    1.1460   -0.4780 ca        1 MOL      0.112327
    120 C40         9.8180    1.8050    0.7720 ca        1 MOL     -0.131075
    121 C41        10.5020    1.4630   -1.5010 ca        1 MOL     -0.131075
    122 C42        10.8060    2.7660    0.9500 ca        1 MOL     -0.179297
    123 C43        11.5150    2.4880   -1.3550 ca        1 MOL     -0.179297
    124 C44        11.6130    3.1660   -0.1360 ca        1 MOL     -0.074394
    125 H51         5.8500   -0.5950   -0.0950 hn        1 MOL      0.235614
    126 H52         7.2400    0.7900   -2.2330 h1        1 MOL      0.000130
    127 H53         8.8040   -0.6600   -1.3010 hc        1 MOL      0.143175
    128 H54         8.3960   -0.2330    0.4160 hc        1 MOL      0.143175
    129 H55         9.2790    1.4340    1.6220 ha        1 MOL      0.113141
    130 H56        10.4900    0.8820   -2.4140 ha        1 MOL      0.113141
    131 H57        11.0110    3.1770    1.9200 ha        1 MOL      0.123446
    132 H58        12.2340    2.7710   -2.1050 ha        1 MOL      0.123446
    133 H59        12.3230    3.9500    0.0840 ha        1 MOL      0.099334
    134 N12         6.8130    3.1950   -1.0470 n         1 MOL     -0.357844
    135 C45         6.7440    4.5290   -0.3700 c3        1 MOL      0.070206
    136 C46         5.3870    5.0550    0.0030 c         1 MOL      0.510287
    137 O20         5.2450    6.2370    0.2940 o         1 MOL     -0.587361
    138 C47         7.5490    5.5680   -1.1430 c3        1 MOL     -0.045548
    139 C48         8.4250    4.7020   -1.9850 c3        1 MOL      0.172202
    140 C49         7.7320    3.3660   -2.2250 c3        1 MOL     -0.037201
    141 H60         7.2090    4.3410    0.5940 h1        1 MOL      0.076012
    142 H61         6.9590    6.2130   -1.7990 hc        1 MOL      0.037320
    143 H62         8.1050    6.2750   -0.5420 hc        1 MOL      0.037320
    144 H63         8.7190    5.1610   -2.9300 hc        1 MOL     -0.038952
    145 H64         9.3340    4.5490   -1.4050 hc        1 MOL     -0.038952
    146 H65         7.1260    3.4310   -3.1250 h1        1 MOL      0.042217
    147 H66         8.3930    2.5120   -2.3600 h1        1 MOL      0.042217
    148 N13         4.3200    4.2810   -0.0910 n         1 MOL     -0.295369
    149 C50         2.8780    4.6220    0.0770 c3        1 MOL     -0.109403
    150 C51         2.5470    5.1810    1.4940 c         1 MOL      0.492780
    151 O21         1.4340    5.5580    1.8110 o         1 MOL     -0.516922
    152 C52         2.1120    3.3220   -0.2410 c3        1 MOL     -0.073945
    153 C53         2.3610    2.1120    0.6170 c3        1 MOL      0.186991
    154 C54         1.5150    0.8980    0.3140 c         1 MOL      0.538881
    155 O22         1.9220   -0.2420   -0.1140 o         1 MOL     -0.635163
    156 O23         0.3090    1.0440    0.3430 o         1 MOL     -0.635163
    157 H67         4.6650    3.3340   -0.1150 hn        1 MOL      0.170701
    158 H68         2.5840    5.4230   -0.6030 h1        1 MOL      0.134357
    159 H69         2.4700    2.9170   -1.1850 hc        1 MOL      0.038443
    160 H70         1.0770    3.6690   -0.2380 hc        1 MOL      0.038443
    161 H71         2.3100    2.2920    1.6940 hc        1 MOL     -0.061930
    162 H72         3.4040    1.8110    0.5230 hc        1 MOL     -0.061930
    163 N14         3.5380    5.0820    2.3790 n         1 MOL     -0.184895
    164 C55         3.5470    5.6880    3.6880 c3        1 MOL     -0.066318
    165 H73         3.5340    4.9080    4.4490 h1        1 MOL      0.052954
    166 H74         4.4480    6.2920    3.8030 h1        1 MOL      0.052954
    167 H75         2.6680    6.3210    3.8020 h1        1 MOL      0.052954
    168 H76         4.3940    4.8210    1.9180 hn        1 MOL      0.179428
    169 Ca1        -0.2320   -1.2930   -0.8860 Ca        1 MOL      1.715771
    170 O24        -2.0590   -1.0370    1.1340 oh        1 MOL     -0.836921
    171 H77        -2.0390   -0.1770    1.5440 ho        1 MOL      0.402826
    172 H78        -2.9470   -1.1140    0.7920 ho        1 MOL      0.402826
    173 O25         0.2760    0.3930   -2.8410 oh        1 MOL     -0.836921
    174 H79        -0.4030    1.0250   -3.0810 ho        1 MOL      0.402826
    175 H80         0.9400    0.4790   -3.5220 ho        1 MOL      0.402826
@<TRIPOS>BOND
     1    1    2 1   
     2    1    4 1   
     3    1    5 1   
     4    1    6 1   
     5    2    3 2   
     6    2    7 1   
     7    7    8 1   
     8    7   15 1   
     9    8    9 1   
    10    8   11 1   
    11    8   16 1   
    12    9   10 2   
    13    9   19 1   
    14   11   12 1   
    15   11   17 1   
    16   11   18 1   
    17   12   13 1   
    18   12   14 1   
    19   19   20 1   
    20   19   24 1   
    21   20   21 1   
    22   20   23 1   
    23   20   25 1   
    24   21   22 2   
    25   21   29 1   
    26   23   26 1   
    27   23   27 1   
    28   23   28 1   
    29   29   30 1   
    30   29   37 1   
    31   30   31 1   
    32   30   33 1   
    33   30   38 1   
    34   31   32 2   
    35   31   41 1   
    36   33   34 1   
    37   33   39 1   
    38   33   40 1   
    39   34   35 1   
    40   34   36 1   
    41   41   42 1   
    42   41   45 1   
    43   42   43 1   
    44   42   46 1   
    45   42   47 1   
    46   43   44 2   
    47   43   48 1   
    48   48   49 1   
    49   48   56 1   
    50   49   50 1   
    51   49   52 1   
    52   49   57 1   
    53   50   51 2   
    54   50   62 1   
    55   52   53 1   
    56   52   58 1   
    57   52   59 1   
    58   53   54 1   
    59   53   55 2   
    60   54   60 1   
    61   54   61 1   
    62   62   63 1   
    63   62   66 1   
    64   63   64 1   
    65   63   67 1   
    66   63   68 1   
    67   64   65 2   
    68   64   69 1   
    69   69   70 1   
    70   69   76 1   
    71   70   71 1   
    72   70   73 1   
    73   70   77 1   
    74   71   72 2   
    75   71   83 1   
    76   73   74 1   
    77   73   75 1   
    78   73   78 1   
    79   74   80 1   
    80   74   81 1   
    81   74   82 1   
    82   75   79 1   
    83   83   84 1   
    84   83   91 1   
    85   84   85 1   
    86   84   87 1   
    87   84   92 1   
    88   85   86 2   
    89   85  102 1   
    90   87   88 1   
    91   87   89 1   
    92   87   93 1   
    93   88   90 1   
    94   88   94 1   
    95   88   95 1   
    96   89   96 1   
    97   89   97 1   
    98   89   98 1   
    99   90   99 1   
   100   90  100 1   
   101   90  101 1   
   102  102  103 1   
   103  102  110 1   
   104  103  104 1   
   105  103  106 1   
   106  103  111 1   
   107  104  105 2   
   108  104  114 1   
   109  106  107 1   
   110  106  112 1   
   111  106  113 1   
   112  107  108 1   
   113  107  109 1   
   114  114  115 1   
   115  114  125 1   
   116  115  116 1   
   117  115  118 1   
   118  115  126 1   
   119  116  117 2   
   120  116  134 1   
   121  118  119 1   
   122  118  127 1   
   123  118  128 1   
   124  119  120 ar  
   125  119  121 ar  
   126  120  122 ar  
   127  120  129 1   
   128  121  123 ar  
   129  121  130 1   
   130  122  124 ar  
   131  122  131 1   
   132  123  124 ar  
   133  123  132 1   
   134  124  133 1   
   135  134  135 1   
   136  134  140 1   
   137  135  136 1   
   138  135  138 1   
   139  135  141 1   
   140  136  137 2   
   141  136  148 1   
   142  138  139 1   
   143  138  142 1   
   144  138  143 1   
   145  139  140 1   
   146  139  144 1   
   147  139  145 1   
   148  140  146 1   
   149  140  147 1   
   150  148  149 1   
   151  148  157 1   
   152  149  150 1   
   153  149  152 1   
   154  149  158 1   
   155  150  151 2   
   156  150  163 1   
   157  152  153 1   
   158  152  159 1   
   159  152  160 1   
   160  153  154 1   
   161  153  161 1   
   162  153  162 1   
   163  154  155 1   
   164  154  156 1   
   165  163  164 1   
   166  163  168 1   
   167  164  165 1   
   168  164  166 1   
   169  164  167 1   
   170  170  171 1   
   171  170  172 1   
   172  173  174 1   
   173  173  175 1   
@<TRIPOS>SUBSTRUCTURE
     1 MOL         1 TEMP              0 ****  ****    0 ROOT
