@<TRIPOS>MOLECULE
MOL
  178   175     1     0     0
SMALL
resp


@<TRIPOS>ATOM
      1 C1         -7.0300    7.8330    1.5460 c3        1 MOL     -0.410258
      2 C2         -7.8890    6.9730    0.6100 c         1 MOL      0.747020
      3 O1         -7.9180    7.3130   -0.5370 o         1 MOL     -0.572713
      4 H1         -7.2260    8.8870    1.3520 hc        1 MOL      0.093780
      5 H2         -7.2770    7.6030    2.5820 hc        1 MOL      0.093780
      6 H3         -5.9750    7.6230    1.3670 hc        1 MOL      0.093780
      7 N1         -8.5120    5.8760    1.1350 n         1 MOL     -0.660195
      8 C3         -9.3160    4.8540    0.3560 c3        1 MOL      0.268999
      9 C4         -8.4710    4.0180   -0.6710 c         1 MOL      0.453412
     10 O2         -8.9070    3.4240   -1.6660 o         1 MOL     -0.506646
     11 C5         -9.9910    3.9580    1.4330 c3        1 MOL     -0.284228
     12 C6        -11.0430    3.0520    0.7480 c         1 MOL      0.754001
     13 O3        -10.9830    1.8440    1.0390 o         1 MOL     -0.731514
     14 O4        -11.8780    3.5230   -0.0270 o         1 MOL     -0.731514
     15 H4         -8.4080    5.6490    2.1120 hn        1 MOL      0.321779
     16 H5        -10.1080    5.3240   -0.2280 h1        1 MOL      0.039371
     17 H6        -10.5760    4.6560    2.0450 hc        1 MOL      0.024834
     18 H7         -9.2820    3.4430    2.0760 hc        1 MOL      0.024834
     19 N2         -7.1510    3.9360   -0.3660 n         1 MOL     -0.523984
     20 C7         -6.1660    3.1720   -1.0610 c3        1 MOL      0.359227
     21 C8         -5.0500    2.6090   -0.1190 c         1 MOL      0.298194
     22 O5         -4.3460    3.3370    0.5430 o         1 MOL     -0.493297
     23 C9         -5.4720    4.1440   -2.0470 c3        1 MOL     -0.163043
     24 H8         -6.8970    4.4680    0.4540 hn        1 MOL      0.259760
     25 H9         -6.7030    2.4080   -1.6150 h1        1 MOL      0.052852
     26 H10        -4.9170    4.9370   -1.5480 hc        1 MOL      0.043920
     27 H11        -4.9070    3.5280   -2.7450 hc        1 MOL      0.043920
     28 H12        -6.1730    4.5370   -2.7800 hc        1 MOL      0.043920
     29 N3         -4.7920    1.2960   -0.1800 n         1 MOL     -0.175689
     30 C10        -5.4960    0.2520   -0.8760 c3        1 MOL     -0.104193
     31 C11        -5.5220   -1.1300   -0.1240 c         1 MOL      0.304150
     32 O6         -4.6120   -1.5200    0.5730 o         1 MOL     -0.396016
     33 C12        -4.9630   -0.0610   -2.2670 c3        1 MOL     -0.352944
     34 C13        -3.4740    0.0990   -2.4320 c         1 MOL      0.901071
     35 O7         -2.9930    0.3430   -3.5480 o         1 MOL     -0.756528
     36 O8         -2.6990    0.1380   -1.4820 o         1 MOL     -0.756528
     37 H13        -4.0830    0.9470    0.4370 hn        1 MOL      0.240410
     38 H14        -6.5490    0.4920   -0.9790 h1        1 MOL      0.093867
     39 H15        -5.3480    0.7000   -2.9560 hc        1 MOL      0.084842
     40 H16        -5.2460   -1.0650   -2.5920 hc        1 MOL      0.084842
     41 N4         -6.6860   -1.7960   -0.2550 n         1 MOL     -0.326129
     42 C14        -7.0390   -3.1280    0.1870 c3        1 MOL      0.111932
     43 C15        -7.0370   -4.1130   -0.9640 c         1 MOL      0.495747
     44 O9         -8.1360   -4.4130   -1.4570 o         1 MOL     -0.528119
     45 H17        -7.4270   -1.3000   -0.7320 hn        1 MOL      0.311893
     46 H18        -8.0210   -3.0990    0.6500 h1        1 MOL      0.025762
     47 H19        -6.3260   -3.5240    0.9160 h1        1 MOL      0.025762
     48 N5         -5.8370   -4.6830   -1.3650 n         1 MOL     -0.533751
     49 C16        -4.4700   -4.2990   -1.0560 c3        1 MOL      0.217095
     50 C17        -3.9670   -4.9490    0.2510 c         1 MOL      0.344250
     51 O10        -3.6930   -6.1720    0.2850 o         1 MOL     -0.498301
     52 C18        -3.5640   -4.6530   -2.2280 c3        1 MOL     -0.265251
     53 C19        -2.2310   -3.9860   -2.1650 c         1 MOL      0.750717
     54 N6         -1.1580   -4.5940   -2.6180 n         1 MOL     -0.704047
     55 O11        -2.0160   -2.9290   -1.7160 o         1 MOL     -0.690581
     56 H20        -5.9370   -5.3390   -2.1230 hn        1 MOL      0.309555
     57 H21        -4.3790   -3.2150   -1.0070 h1        1 MOL      0.119877
     58 H22        -3.9600   -4.2490   -3.1530 hc        1 MOL      0.071145
     59 H23        -3.4350   -5.7340   -2.3100 hc        1 MOL      0.071145
     60 H24        -1.2170   -5.4620   -3.1390 hn        1 MOL      0.321497
     61 H25        -0.3210   -4.0870   -2.3770 hn        1 MOL      0.321497
     62 N7         -3.8590   -4.1990    1.3650 n         1 MOL     -0.064903
     63 C20        -3.5000   -4.8300    2.6210 c3        1 MOL     -0.238690
     64 C21        -1.9920   -5.1640    2.7280 c         1 MOL      0.534967
     65 O12        -1.6700   -6.0990    3.4160 o         1 MOL     -0.558578
     66 H26        -4.1750   -3.2430    1.2780 hn        1 MOL      0.165661
     67 H27        -4.0660   -5.7620    2.7340 h1        1 MOL      0.100103
     68 H28        -3.7840   -4.2580    3.4970 h1        1 MOL      0.100103
     69 N8         -1.0820   -4.4400    2.0670 n         1 MOL     -0.107598
     70 C22         0.3670   -4.7410    2.0940 c3        1 MOL     -0.500224
     71 C23         1.1260   -3.4820    1.8550 c         1 MOL      0.533537
     72 O13         0.7190   -2.5850    1.1480 o         1 MOL     -0.404620
     73 C24         0.7050   -5.8280    1.0320 c3        1 MOL      0.644210
     74 C25         0.4650   -7.2270    1.5110 c3        1 MOL     -0.456296
     75 O14         0.0020   -5.6060   -0.1270 oh        1 MOL     -0.702469
     76 H29        -1.3880   -3.6160    1.5650 hn        1 MOL      0.166135
     77 H30         0.6240   -5.2150    3.0390 h1        1 MOL      0.138345
     78 H31         1.7860   -5.8090    0.8210 h1        1 MOL     -0.025544
     79 H32         0.6080   -5.2970   -0.8160 ho        1 MOL      0.436382
     80 H33        -0.5940   -7.4560    1.6560 hc        1 MOL      0.101525
     81 H34         0.9320   -7.9710    0.8560 hc        1 MOL      0.101525
     82 H35         0.9760   -7.3460    2.4660 hc        1 MOL      0.101525
     83 N9          2.3140   -3.3670    2.5090 n         1 MOL     -0.218390
     84 C26         3.1690   -2.1930    2.3830 c3        1 MOL      0.082064
     85 C27         4.1300   -2.6150    1.2840 c         1 MOL      0.117028
     86 O15         5.0290   -3.4670    1.4810 o         1 MOL     -0.507550
     87 C28         3.6330   -1.6260    3.7200 c3        1 MOL      0.014439
     88 C29         4.6910   -0.5280    3.3020 c3        1 MOL      0.228056
     89 C30         2.4130   -1.0400    4.3840 c3        1 MOL     -0.199197
     90 C31         5.3530    0.2750    4.3680 c3        1 MOL     -0.419771
     91 H36         2.7280   -4.0300    3.1500 hn        1 MOL      0.232725
     92 H37         2.6120   -1.4050    1.8670 h1        1 MOL     -0.038477
     93 H38         4.1300   -2.3280    4.3830 hc        1 MOL      0.016258
     94 H39         4.1350    0.2280    2.7420 hc        1 MOL     -0.005354
     95 H40         5.4670   -1.0520    2.7520 hc        1 MOL     -0.005354
     96 H41         1.7360   -1.8720    4.5530 hc        1 MOL      0.048733
     97 H42         2.5650   -0.5490    5.3350 hc        1 MOL      0.048733
     98 H43         1.9740   -0.2860    3.7220 hc        1 MOL      0.048733
     99 H44         5.7400   -0.4760    5.0530 hc        1 MOL      0.088702
    100 H45         6.1740    0.9660    4.1570 hc        1 MOL      0.088702
    101 H46         4.5260    0.8060    4.8550 hc        1 MOL      0.088702
    102 N10         3.9530   -2.0780    0.0650 n         1 MOL     -0.075425
    103 C32         4.5380   -2.5980   -1.1720 c3        1 MOL      0.242962
    104 C33         5.6870   -1.7200   -1.6670 c         1 MOL      0.561844
    105 O16         6.3210   -2.1020   -2.6110 o         1 MOL     -0.555079
    106 C34         3.5000   -2.8330   -2.2420 c3        1 MOL     -0.252970
    107 C35         2.1930   -3.4660   -1.8120 c         1 MOL      0.888772
    108 O17         2.1780   -4.6540   -1.4200 o         1 MOL     -0.751576
    109 O18         1.1470   -2.8020   -1.9330 o         1 MOL     -0.751576
    110 H47         3.2030   -1.4230   -0.0600 hn        1 MOL      0.044002
    111 H48         5.0350   -3.5570   -1.0220 h1        1 MOL      0.031777
    112 H49         3.9290   -3.4980   -2.9910 hc        1 MOL      0.033163
    113 H50         3.3040   -1.8470   -2.6660 hc        1 MOL      0.033163
    114 N11         5.9510   -0.5580   -0.9930 n         1 MOL     -0.600773
    115 C36         7.1120    0.3100   -1.1370 c3        1 MOL      0.258228
    116 C37         6.8080    1.7830   -0.6070 c         1 MOL      0.357238
    117 O19         6.4530    1.9100    0.5360 o         1 MOL     -0.575528
    118 C38         8.3180   -0.1910   -0.3310 c3        1 MOL     -0.208900
    119 C39         9.6010    0.3820   -0.6560 ca        1 MOL      0.089523
    120 C40         9.9520    1.6600   -0.0740 ca        1 MOL     -0.174860
    121 C41        10.5430   -0.1470   -1.5640 ca        1 MOL     -0.174860
    122 C42        11.0870    2.3550   -0.4210 ca        1 MOL     -0.065883
    123 C43        11.6490    0.6010   -1.9640 ca        1 MOL     -0.065883
    124 C44        11.9910    1.8030   -1.3350 ca        1 MOL     -0.164976
    125 H51         5.1280   -0.3230   -0.4520 hn        1 MOL      0.304030
    126 H52         7.4860    0.2420   -2.1550 h1        1 MOL      0.023578
    127 H53         8.3590   -1.2710   -0.4910 hc        1 MOL      0.109983
    128 H54         8.0240   -0.1490    0.7140 hc        1 MOL      0.109983
    129 H55         9.4110    2.0740    0.7630 ha        1 MOL      0.129577
    130 H56        10.3410   -1.0470   -2.1230 ha        1 MOL      0.129577
    131 H57        11.2540    3.2590    0.1440 ha        1 MOL      0.091154
    132 H58        12.2790    0.1360   -2.7090 ha        1 MOL      0.091154
    133 H59        12.9500    2.2530   -1.5430 ha        1 MOL      0.108383
    134 N12         6.9000    2.9070   -1.3320 n         1 MOL     -0.009028
    135 C45         6.8300    4.3090   -0.8750 c3        1 MOL      0.070206
    136 C46         5.5360    4.7680   -0.2060 c         1 MOL      0.367638
    137 O20         5.3850    6.0040    0.1270 o         1 MOL     -0.549036
    138 C47         7.0350    5.1760   -2.0970 c3        1 MOL     -0.215551
    139 C48         7.8680    4.2510   -2.9870 c3        1 MOL      0.170922
    140 C49         7.3420    2.8410   -2.6840 c3        1 MOL     -0.257918
    141 H60         7.6480    4.4390   -0.1710 h1        1 MOL      0.075832
    142 H61         6.0770    5.5030   -2.4920 hc        1 MOL      0.086751
    143 H62         7.6580    6.0360   -1.8430 hc        1 MOL      0.086751
    144 H63         7.7920    4.5560   -4.0290 hc        1 MOL     -0.014633
    145 H64         8.9170    4.2940   -2.6660 hc        1 MOL     -0.014633
    146 H65         6.4350    2.6670   -3.2620 h1        1 MOL      0.093639
    147 H66         8.1710    2.1470   -2.7700 h1        1 MOL      0.093639
    148 N13         4.5790    3.9160    0.1830 n         1 MOL     -0.182923
    149 C50         3.3430    4.3280    0.8310 c3        1 MOL     -0.195266
    150 C51         3.4700    4.6580    2.2770 c         1 MOL      0.582878
    151 O21         2.6120    5.3220    2.8760 o         1 MOL     -0.539388
    152 C52         2.1910    3.3420    0.6370 c3        1 MOL     -0.190204
    153 C53         2.2710    1.9720    1.3120 c3        1 MOL     -0.264963
    154 C54         1.3390    1.0230    0.6920 c         1 MOL      0.956994
    155 O22         1.8140    0.1910   -0.1450 o         1 MOL     -0.778274
    156 O23         0.1580    0.8560    1.0650 o         1 MOL     -0.778274
    157 H67         4.7410    2.9660   -0.1080 hn        1 MOL      0.208463
    158 H68         2.9820    5.2670    0.4020 h1        1 MOL      0.162233
    159 H69         2.2150    3.0690   -0.4160 hc        1 MOL      0.097955
    160 H70         1.2200    3.7520    0.8990 hc        1 MOL      0.097955
    161 H71         2.0310    2.1970    2.3500 hc        1 MOL      0.090005
    162 H72         3.2960    1.6250    1.1650 hc        1 MOL      0.090005
    163 N14         4.6750    4.4270    2.8360 n         1 MOL     -0.273725
    164 C55         5.1420    4.9810    4.1450 c3        1 MOL     -0.189649
    165 H73         6.2010    4.7610    4.2750 h1        1 MOL      0.092550
    166 H74         4.9910    6.0600    4.1580 h1        1 MOL      0.092550
    167 H75         4.5750    4.5240    4.9560 h1        1 MOL      0.092550
    168 H76         5.3840    4.1850    2.1470 hn        1 MOL      0.242570
    169 Ca1        -0.3760   -0.9890   -0.9060 Ca        1 MOL      1.746651
    170 O24        -0.4470    1.5870   -1.9360 oh        1 MOL     -0.915396
    171 H77        -1.3770    1.6150   -2.1410 ho        1 MOL      0.424711
    172 H78        -0.0660    2.3000   -2.4370 ho        1 MOL      0.424711
    173 O25        -2.0540   -1.5130    1.2520 oh        1 MOL     -0.915396
    174 H79        -1.9620   -0.7880    1.8740 ho        1 MOL      0.424711
    175 H80        -2.9210   -1.3910    0.8590 ho        1 MOL      0.424711
    176 O26        -0.5870   -1.0520   -3.6340 oh        1 MOL     -0.915396
    177 H81        -0.3460   -1.5280   -4.4340 ho        1 MOL      0.424711
    178 H82        -1.2560   -0.4260   -3.9250 ho        1 MOL      0.424711
@<TRIPOS>BOND
     1    1    2 1   
     2    1    4 1   
     3    1    5 1   
     4    1    6 1   
     5    2    3 2   
     6    2    7 1   
     7    7    8 1   
     8    7   15 1   
     9    8    9 1   
    10    8   11 1   
    11    8   16 1   
    12    9   10 2   
    13    9   19 1   
    14   11   12 1   
    15   11   17 1   
    16   11   18 1   
    17   12   13 1   
    18   12   14 1   
    19   19   20 1   
    20   19   24 1   
    21   20   21 1   
    22   20   23 1   
    23   20   25 1   
    24   21   22 2   
    25   21   29 1   
    26   23   26 1   
    27   23   27 1   
    28   23   28 1   
    29   29   30 1   
    30   29   37 1   
    31   30   31 1   
    32   30   33 1   
    33   30   38 1   
    34   31   32 2   
    35   31   41 1   
    36   33   34 1   
    37   33   39 1   
    38   33   40 1   
    39   34   35 1   
    40   34   36 1   
    41   41   42 1   
    42   41   45 1   
    43   42   43 1   
    44   42   46 1   
    45   42   47 1   
    46   43   44 2   
    47   43   48 1   
    48   48   49 1   
    49   48   56 1   
    50   49   50 1   
    51   49   52 1   
    52   49   57 1   
    53   50   51 2   
    54   50   62 1   
    55   52   53 1   
    56   52   58 1   
    57   52   59 1   
    58   53   54 1   
    59   53   55 2   
    60   54   60 1   
    61   54   61 1   
    62   62   63 1   
    63   62   66 1   
    64   63   64 1   
    65   63   67 1   
    66   63   68 1   
    67   64   65 2   
    68   64   69 1   
    69   69   70 1   
    70   69   76 1   
    71   70   71 1   
    72   70   73 1   
    73   70   77 1   
    74   71   72 2   
    75   71   83 1   
    76   73   74 1   
    77   73   75 1   
    78   73   78 1   
    79   74   80 1   
    80   74   81 1   
    81   74   82 1   
    82   75   79 1   
    83   83   84 1   
    84   83   91 1   
    85   84   85 1   
    86   84   87 1   
    87   84   92 1   
    88   85   86 2   
    89   85  102 1   
    90   87   88 1   
    91   87   89 1   
    92   87   93 1   
    93   88   90 1   
    94   88   94 1   
    95   88   95 1   
    96   89   96 1   
    97   89   97 1   
    98   89   98 1   
    99   90   99 1   
   100   90  100 1   
   101   90  101 1   
   102  102  103 1   
   103  102  110 1   
   104  103  104 1   
   105  103  106 1   
   106  103  111 1   
   107  104  105 2   
   108  104  114 1   
   109  106  107 1   
   110  106  112 1   
   111  106  113 1   
   112  107  108 1   
   113  107  109 1   
   114  114  115 1   
   115  114  125 1   
   116  115  116 1   
   117  115  118 1   
   118  115  126 1   
   119  116  117 2   
   120  116  134 1   
   121  118  119 1   
   122  118  127 1   
   123  118  128 1   
   124  119  120 ar  
   125  119  121 ar  
   126  120  122 ar  
   127  120  129 1   
   128  121  123 ar  
   129  121  130 1   
   130  122  124 ar  
   131  122  131 1   
   132  123  124 ar  
   133  123  132 1   
   134  124  133 1   
   135  134  135 1   
   136  134  140 1   
   137  135  136 1   
   138  135  138 1   
   139  135  141 1   
   140  136  137 2   
   141  136  148 1   
   142  138  139 1   
   143  138  142 1   
   144  138  143 1   
   145  139  140 1   
   146  139  144 1   
   147  139  145 1   
   148  140  146 1   
   149  140  147 1   
   150  148  149 1   
   151  148  157 1   
   152  149  150 1   
   153  149  152 1   
   154  149  158 1   
   155  150  151 2   
   156  150  163 1   
   157  152  153 1   
   158  152  159 1   
   159  152  160 1   
   160  153  154 1   
   161  153  161 1   
   162  153  162 1   
   163  154  155 1   
   164  154  156 1   
   165  163  164 1   
   166  163  168 1   
   167  164  165 1   
   168  164  166 1   
   169  164  167 1   
   170  170  171 1   
   171  170  172 1   
   172  173  174 1   
   173  173  175 1   
   174  176  177 1   
   175  176  178 1   
@<TRIPOS>SUBSTRUCTURE
     1 MOL         1 TEMP              0 ****  ****    0 ROOT
