@<TRIPOS>MOLECULE
MOL
  192   187     1     0     0
SMALL
resp


@<TRIPOS>ATOM
      1 C1          4.2450    4.0610   -3.2680 c3        1 MOL     -0.357533
      2 C2          5.1150    3.1940   -2.2760 c         1 MOL      0.770767
      3 O1          4.5570    2.7890   -1.2450 o         1 MOL     -0.604631
      4 H1          3.1880    3.9160   -3.0450 hc        1 MOL      0.090992
      5 H2          4.5000    5.1140   -3.1510 hc        1 MOL      0.090992
      6 H3          4.4450    3.7500   -4.2940 hc        1 MOL      0.090992
      7 N1          6.3750    2.7890   -2.5500 n         1 MOL     -0.723865
      8 C3          7.1630    1.6950   -1.9250 c3        1 MOL      0.355624
      9 C4          6.2830    0.4790   -1.6520 c         1 MOL      0.212326
     10 O2          5.7450    0.2600   -0.5780 o         1 MOL     -0.498769
     11 C5          8.0780    2.2100   -0.7400 c3        1 MOL     -0.330561
     12 C6          7.3190    3.1390    0.2040 c         1 MOL      0.789704
     13 O3          6.5700    2.7110    1.1890 o         1 MOL     -0.715556
     14 O4          7.5480    4.3710    0.1430 o         1 MOL     -0.715556
     15 H4          6.7240    2.9480   -3.4870 hn        1 MOL      0.310597
     16 H5          7.8970    1.4100   -2.6840 h1        1 MOL      0.012883
     17 H6          9.0210    2.5900   -1.1320 hc        1 MOL      0.073745
     18 H7          8.3080    1.2860   -0.2110 hc        1 MOL      0.073745
     19 N2          6.2510   -0.3480   -2.6560 n         1 MOL     -0.351817
     20 C7          5.4980   -1.6180   -2.7860 c3        1 MOL      0.033461
     21 C8          6.0770   -2.7500   -1.9810 c         1 MOL      0.392068
     22 O5          6.3870   -3.8100   -2.5540 o         1 MOL     -0.579407
     23 C9          3.9170   -1.4250   -2.6050 c3        1 MOL      0.263716
     24 C10         3.1450   -2.6630   -2.9940 c3        1 MOL     -0.111145
     25 C11         3.2930   -0.2090   -3.2640 c3        1 MOL     -0.152105
     26 C12         3.0500   -3.1520   -4.4970 c3        1 MOL     -0.080472
     27 H8          6.7500   -0.0930   -3.5020 hn        1 MOL      0.253982
     28 H9          5.6000   -1.9320   -3.8310 h1        1 MOL      0.053326
     29 H10         3.7910   -1.2150   -1.5450 hc        1 MOL     -0.073039
     30 H11         2.1030   -2.5560   -2.6960 hc        1 MOL      0.082466
     31 H12         3.5350   -3.5370   -2.4850 hc        1 MOL      0.082466
     32 H13         3.3810   -0.3810   -4.3330 hc        1 MOL      0.009915
     33 H14         2.2490   -0.1640   -2.9870 hc        1 MOL      0.009915
     34 H15         3.7640    0.7500   -3.0290 hc        1 MOL      0.009915
     35 H16         2.5940   -2.4120   -5.1580 hc        1 MOL      0.002513
     36 H17         4.0560   -3.1790   -4.9070 hc        1 MOL      0.002513
     37 H18         2.5650   -4.1230   -4.5770 hc        1 MOL      0.002513
     38 N3          6.2590   -2.5950   -0.6650 n         1 MOL     -0.167251
     39 C13         6.9900   -3.5820    0.1790 c3        1 MOL     -0.009085
     40 C14         6.1750   -4.8570    0.5340 c         1 MOL      0.618829
     41 O6          6.7570   -5.8430    0.7220 o         1 MOL     -0.580260
     42 C15         7.3020   -2.8280    1.5620 c3        1 MOL     -0.300610
     43 C16         8.2310   -1.6780    1.4130 c         1 MOL      0.860041
     44 O7          9.1500   -1.7460    0.5820 o         1 MOL     -0.739993
     45 O8          8.1760   -0.7840    2.2590 o         1 MOL     -0.739993
     46 H19         5.9140   -1.7160   -0.2890 hn        1 MOL      0.300562
     47 H20         7.9490   -3.7670   -0.3130 h1        1 MOL      0.069735
     48 H21         7.6700   -3.5700    2.2750 hc        1 MOL      0.073459
     49 H22         6.3580   -2.3480    1.8130 hc        1 MOL      0.073459
     50 N4          4.7980   -4.9260    0.6190 n         1 MOL     -0.530432
     51 C17         3.8440   -3.8490    0.5280 c3        1 MOL      0.104783
     52 C18         2.4750   -4.4300    0.9420 c         1 MOL      0.598836
     53 O9          2.0210   -5.4750    0.4770 o         1 MOL     -0.589845
     54 H23         4.3790   -5.8220    0.8220 hn        1 MOL      0.287700
     55 H24         3.7570   -3.4960   -0.4990 h1        1 MOL     -0.001553
     56 H25         4.1370   -3.0800    1.2480 h1        1 MOL     -0.001553
     57 N5          1.6770   -3.8520    1.8650 n         1 MOL     -0.583778
     58 C19         1.7760   -2.5020    2.5300 c3        1 MOL      0.228845
     59 C20         2.0320   -1.2980    1.6150 c         1 MOL      0.360982
     60 O10         3.1620   -0.8180    1.4560 o         1 MOL     -0.673367
     61 C21         2.6630   -2.5370    3.7470 c3        1 MOL     -0.243825
     62 C22         2.6300   -1.2440    4.5950 c         1 MOL      0.704282
     63 O11         3.4920   -1.1160    5.4580 o         1 MOL     -0.681330
     64 O12         1.6350   -0.4800    4.4650 o         1 MOL     -0.681330
     65 H26         0.8110   -4.3670    2.0040 hn        1 MOL      0.308378
     66 H27         0.7620   -2.2820    2.8800 h1        1 MOL      0.024705
     67 H28         3.6690   -2.6500    3.3640 hc        1 MOL      0.051537
     68 H29         2.4300   -3.3940    4.3850 hc        1 MOL      0.051537
     69 N6          1.0560   -0.8230    0.9190 n         1 MOL     -0.186469
     70 C23        -0.3850   -1.1690    0.9940 c3        1 MOL      0.050123
     71 C24        -0.7920   -2.4640    0.2950 c         1 MOL      0.393800
     72 O13        -0.1730   -2.8730   -0.6670 o         1 MOL     -0.486361
     73 H30         1.2290    0.0630    0.4610 hn        1 MOL      0.184196
     74 H31        -0.9310   -0.3300    0.5660 h1        1 MOL      0.049895
     75 H32        -0.7030   -1.1940    2.0360 h1        1 MOL      0.049895
     76 N7         -1.9830   -3.0380    0.5790 n         1 MOL     -0.471989
     77 C25        -2.5120   -4.2290   -0.2430 c3        1 MOL      0.047652
     78 C26        -2.9630   -3.9260   -1.6820 c         1 MOL      0.309468
     79 O14        -3.2250   -4.7940   -2.5020 o         1 MOL     -0.486665
     80 C27        -3.5820   -4.8630    0.6870 c3        1 MOL     -0.036420
     81 C28        -4.8580   -3.9920    0.5530 c3        1 MOL      0.055777
     82 C29        -6.1010   -4.3730    1.3380 c         1 MOL      0.474011
     83 N8         -6.4940   -5.5830    1.2760 n         1 MOL     -0.724481
     84 O15        -6.6540   -3.6570    2.1190 o         1 MOL     -0.461277
     85 H33        -2.6470   -2.7340    1.2790 hn        1 MOL      0.279121
     86 H34        -1.6980   -4.9610   -0.2800 h1        1 MOL      0.142124
     87 H35        -3.2930   -4.9300    1.7370 hc        1 MOL      0.018371
     88 H36        -3.6080   -5.8960    0.3390 hc        1 MOL      0.018371
     89 H37        -5.0380   -3.9590   -0.5200 hc        1 MOL      0.029477
     90 H38        -4.6610   -2.9920    0.9530 hc        1 MOL      0.029477
     91 H39        -6.1730   -6.2930    0.6400 hn        1 MOL      0.342916
     92 H40        -7.1800   -5.9090    1.9360 hn        1 MOL      0.342916
     93 N9         -3.1620   -2.6170   -1.9440 n         1 MOL     -0.034247
     94 C30        -3.5240   -1.9900   -3.2720 c3        1 MOL     -0.240413
     95 C31        -4.8780   -1.2150   -3.2470 c         1 MOL      0.658060
     96 O16        -5.3820   -0.9940   -4.3430 o         1 MOL     -0.553295
     97 C32        -2.3890   -1.2110   -3.9600 c3        1 MOL      0.127973
     98 C33        -1.1500   -2.1360   -4.0820 c3        1 MOL     -0.203066
     99 C34        -1.9740    0.0800   -3.2390 c3        1 MOL     -0.203066
    100 H41        -3.0070   -1.9100   -1.2360 hn        1 MOL      0.177441
    101 H42        -3.7410   -2.8270   -3.9370 h1        1 MOL      0.127456
    102 H43        -2.6900   -0.8470   -4.9460 hc        1 MOL      0.013368
    103 H44        -0.3550   -1.6090   -4.6190 hc        1 MOL      0.060153
    104 H45        -0.7900   -2.4560   -3.0970 hc        1 MOL      0.060153
    105 H46        -1.3530   -3.0640   -4.6120 hc        1 MOL      0.060153
    106 H47        -1.2470    0.6470   -3.8030 hc        1 MOL      0.060153
    107 H48        -2.8190    0.6960   -2.9440 hc        1 MOL      0.060153
    108 H49        -1.4630   -0.1550   -2.3080 hc        1 MOL      0.060153
    109 N10        -5.5050   -0.9740   -2.0300 n         1 MOL     -0.542839
    110 C35        -6.8420   -0.5130   -1.8840 c3        1 MOL      0.103605
    111 C36        -7.0400    0.8640   -1.1830 c         1 MOL      0.590682
    112 O17        -8.0450    1.4830   -1.2720 o         1 MOL     -0.544698
    113 C37        -7.7710   -1.6160   -1.2840 c3        1 MOL     -0.257790
    114 C38        -7.7280   -2.9050   -2.0720 c         1 MOL      0.562254
    115 N11        -7.7900   -2.9040   -3.3900 n         1 MOL     -0.741573
    116 O18        -7.5410   -4.0190   -1.5690 o         1 MOL     -0.534853
    117 H50        -4.9420   -1.1500   -1.2150 hn        1 MOL      0.266280
    118 H51        -7.2650   -0.2760   -2.8660 h1        1 MOL      0.044178
    119 H52        -8.7570   -1.1940   -1.4700 hc        1 MOL      0.112033
    120 H53        -7.5820   -1.8760   -0.2470 hc        1 MOL      0.112033
    121 H54        -7.8950   -2.0260   -3.8830 hn        1 MOL      0.361851
    122 H55        -7.8200   -3.7860   -3.8880 hn        1 MOL      0.361851
    123 N12        -5.9630    1.2260   -0.4140 n         1 MOL     -0.548628
    124 C39        -5.8560    2.3630    0.4680 c3        1 MOL      0.533161
    125 C40        -4.4340    2.9550    0.4370 c         1 MOL      0.185738
    126 O19        -3.4880    2.3300   -0.0590 o         1 MOL     -0.442259
    127 C41        -6.2580    1.9850    1.8850 c3        1 MOL     -0.152280
    128 C42        -7.5740    1.2080    2.1360 ca        1 MOL     -0.012050
    129 C43        -8.8010    1.9200    2.2820 ca        1 MOL     -0.085251
    130 C44        -7.5950   -0.2190    2.2590 ca        1 MOL     -0.085251
    131 C45        -9.9890    1.2630    2.5650 ca        1 MOL     -0.304592
    132 C46        -8.8370   -0.8680    2.4630 ca        1 MOL     -0.304592
    133 C47       -10.0400   -0.1410    2.7360 ca        1 MOL      0.392105
    134 O20       -11.2340   -0.6560    3.0690 oh        1 MOL     -0.494737
    135 H56        -5.1610    0.6420   -0.6180 hn        1 MOL      0.237245
    136 H57        -6.5300    3.1640    0.1530 h1        1 MOL     -0.052883
    137 H58        -6.2970    2.8540    2.5360 hc        1 MOL      0.054648
    138 H59        -5.4980    1.2770    2.2290 hc        1 MOL      0.054648
    139 H60        -8.8980    2.9980    2.1910 ha        1 MOL      0.096905
    140 H61        -6.6690   -0.7770    2.2130 ha        1 MOL      0.096905
    141 H62       -10.8720    1.7820    2.9300 ha        1 MOL      0.127018
    142 H63        -8.8370   -1.9420    2.5240 ha        1 MOL      0.127018
    143 H64       -11.9020    0.0150    3.2370 ho        1 MOL      0.350804
    144 N13        -4.2710    4.1270    1.0710 n         1 MOL     -0.451206
    145 C48        -3.0370    4.8120    1.5020 c3        1 MOL      0.098398
    146 C49        -1.9010    5.1220    0.4640 c         1 MOL      0.423039
    147 O21        -1.1060    6.0450    0.6010 o         1 MOL     -0.503597
    148 C50        -2.5850    4.3410    2.8670 c3        1 MOL      0.011989
    149 C51        -2.1010    2.8690    2.7890 c3        1 MOL     -0.069796
    150 C52        -1.2860    2.5430    4.0730 c         1 MOL      0.624187
    151 O22        -0.0540    2.9300    4.1140 o         1 MOL     -0.684514
    152 O23        -1.9130    1.8320    4.9610 o         1 MOL     -0.684514
    153 H65        -5.1240    4.5670    1.4040 hn        1 MOL      0.301896
    154 H66        -3.4460    5.8100    1.6510 h1        1 MOL      0.018550
    155 H67        -3.3980    4.4130    3.5990 hc        1 MOL      0.012677
    156 H68        -1.8480    5.0440    3.2320 hc        1 MOL      0.012677
    157 H69        -1.4810    2.6680    1.9130 hc        1 MOL      0.012162
    158 H70        -2.9440    2.1750    2.8190 hc        1 MOL      0.012162
    159 N14        -1.9020    4.5010   -0.7150 n         1 MOL     -0.402093
    160 C53        -0.8360    4.6750   -1.6560 c3        1 MOL     -0.051149
    161 C54        -1.2000    5.6440   -2.7840 c         1 MOL      0.528906
    162 O24        -0.2620    6.1980   -3.3750 o         1 MOL     -0.535955
    163 C55        -0.3070    3.3410   -2.2100 c3        1 MOL     -0.063043
    164 C56         0.0420    2.2760   -1.1810 c3        1 MOL      0.511403
    165 C57         1.2970    2.5610   -0.3490 c         1 MOL      0.469613
    166 O25         1.5700    3.6950    0.0970 o         1 MOL     -0.565857
    167 O26         2.1090    1.6080   -0.1010 o         1 MOL     -0.565857
    168 H71        -2.5320    3.7220   -0.8340 hn        1 MOL      0.295609
    169 H72        -0.0050    5.2310   -1.2060 h1        1 MOL      0.140016
    170 H73         0.5850    3.5870   -2.7740 hc        1 MOL     -0.033863
    171 H74        -1.1630    3.0360   -2.8170 hc        1 MOL     -0.033863
    172 H75         0.1370    1.3280   -1.7100 hc        1 MOL     -0.134805
    173 H76        -0.7950    2.0600   -0.5110 hc        1 MOL     -0.134805
    174 N15        -2.5260    5.9640   -2.9380 n         1 MOL     -0.268037
    175 C58        -3.0340    6.6980   -4.1120 c3        1 MOL     -0.317048
    176 H77        -4.1200    6.7710   -4.0530 h1        1 MOL      0.116702
    177 H78        -2.6040    7.6990   -4.1280 h1        1 MOL      0.116702
    178 H79        -2.7550    6.1670   -5.0220 h1        1 MOL      0.116702
    179 H80        -3.1530    5.6470   -2.2110 hn        1 MOL      0.220160
    180 Ca1         4.2460    1.6310    1.2480 Ca        1 MOL      1.792429
    181 O27         3.9610    4.4110    1.1320 oh        1 MOL     -0.806872
    182 H81         4.4370    5.0780    0.6550 ho        1 MOL      0.382453
    183 H82         3.0450    4.5320    0.8760 ho        1 MOL      0.382453
    184 O28         5.0300    2.8040    3.6890 oh        1 MOL     -0.806872
    185 H83         5.9080    2.8400    4.0630 ho        1 MOL      0.382453
    186 H84         4.4880    2.4110    4.3850 ho        1 MOL      0.382453
    187 O29         1.9510    1.6010    2.7860 oh        1 MOL     -0.806872
    188 H85         1.4450    2.3060    3.1850 ho        1 MOL      0.382453
    189 H86         1.8060    0.8470    3.3620 ho        1 MOL      0.382453
    190 O30         5.7990    0.1410    2.9480 oh        1 MOL     -0.806872
    191 H87         5.8670    0.1630    3.9030 ho        1 MOL      0.382453
    192 H88         6.5770   -0.3270    2.6660 ho        1 MOL      0.382453
@<TRIPOS>BOND
     1    1    2 1   
     2    1    4 1   
     3    1    5 1   
     4    1    6 1   
     5    2    3 2   
     6    2    7 1   
     7    7    8 1   
     8    7   15 1   
     9    8    9 1   
    10    8   11 1   
    11    8   16 1   
    12    9   10 2   
    13    9   19 1   
    14   11   12 1   
    15   11   17 1   
    16   11   18 1   
    17   12   13 1   
    18   12   14 1   
    19   19   20 1   
    20   19   27 1   
    21   20   21 1   
    22   20   23 1   
    23   20   28 1   
    24   21   22 2   
    25   21   38 1   
    26   23   24 1   
    27   23   25 1   
    28   23   29 1   
    29   24   26 1   
    30   24   30 1   
    31   24   31 1   
    32   25   32 1   
    33   25   33 1   
    34   25   34 1   
    35   26   35 1   
    36   26   36 1   
    37   26   37 1   
    38   38   39 1   
    39   38   46 1   
    40   39   40 1   
    41   39   42 1   
    42   39   47 1   
    43   40   41 2   
    44   40   50 1   
    45   42   43 1   
    46   42   48 1   
    47   42   49 1   
    48   43   44 1   
    49   43   45 1   
    50   50   51 1   
    51   50   54 1   
    52   51   52 1   
    53   51   55 1   
    54   51   56 1   
    55   52   53 2   
    56   52   57 1   
    57   57   58 1   
    58   57   65 1   
    59   58   59 1   
    60   58   61 1   
    61   58   66 1   
    62   59   60 2   
    63   59   69 1   
    64   61   62 1   
    65   61   67 1   
    66   61   68 1   
    67   62   63 1   
    68   62   64 1   
    69   69   70 1   
    70   69   73 1   
    71   70   71 1   
    72   70   74 1   
    73   70   75 1   
    74   71   72 2   
    75   71   76 1   
    76   76   77 1   
    77   76   85 1   
    78   77   78 1   
    79   77   80 1   
    80   77   86 1   
    81   78   79 2   
    82   78   93 1   
    83   80   81 1   
    84   80   87 1   
    85   80   88 1   
    86   81   82 1   
    87   81   89 1   
    88   81   90 1   
    89   82   83 1   
    90   82   84 2   
    91   83   91 1   
    92   83   92 1   
    93   93   94 1   
    94   93  100 1   
    95   94   95 1   
    96   94   97 1   
    97   94  101 1   
    98   95   96 2   
    99   95  109 1   
   100   97   98 1   
   101   97   99 1   
   102   97  102 1   
   103   98  103 1   
   104   98  104 1   
   105   98  105 1   
   106   99  106 1   
   107   99  107 1   
   108   99  108 1   
   109  109  110 1   
   110  109  117 1   
   111  110  111 1   
   112  110  113 1   
   113  110  118 1   
   114  111  112 2   
   115  111  123 1   
   116  113  114 1   
   117  113  119 1   
   118  113  120 1   
   119  114  115 1   
   120  114  116 2   
   121  115  121 1   
   122  115  122 1   
   123  123  124 1   
   124  123  135 1   
   125  124  125 1   
   126  124  127 1   
   127  124  136 1   
   128  125  126 2   
   129  125  144 1   
   130  127  128 1   
   131  127  137 1   
   132  127  138 1   
   133  128  129 ar  
   134  128  130 ar  
   135  129  131 ar  
   136  129  139 1   
   137  130  132 ar  
   138  130  140 1   
   139  131  133 ar  
   140  131  141 1   
   141  132  133 ar  
   142  132  142 1   
   143  133  134 1   
   144  134  143 1   
   145  144  145 1   
   146  144  153 1   
   147  145  146 1   
   148  145  148 1   
   149  145  154 1   
   150  146  147 2   
   151  146  159 1   
   152  148  149 1   
   153  148  155 1   
   154  148  156 1   
   155  149  150 1   
   156  149  157 1   
   157  149  158 1   
   158  150  151 1   
   159  150  152 1   
   160  159  160 1   
   161  159  168 1   
   162  160  161 1   
   163  160  163 1   
   164  160  169 1   
   165  161  162 2   
   166  161  174 1   
   167  163  164 1   
   168  163  170 1   
   169  163  171 1   
   170  164  165 1   
   171  164  172 1   
   172  164  173 1   
   173  165  166 1   
   174  165  167 1   
   175  174  175 1   
   176  174  179 1   
   177  175  176 1   
   178  175  177 1   
   179  175  178 1   
   180  181  182 1   
   181  181  183 1   
   182  184  185 1   
   183  184  186 1   
   184  187  188 1   
   185  187  189 1   
   186  190  191 1   
   187  190  192 1   
@<TRIPOS>SUBSTRUCTURE
     1 MOL         1 TEMP              0 ****  ****    0 ROOT
