@<TRIPOS>MOLECULE
MOL
  188   182     1     0     0
SMALL
resp


@<TRIPOS>ATOM
      1 C1          6.3860    3.6980    0.8230 c3        1 MOL     -0.355937
      2 C2          6.5840    2.6240   -0.2960 c         1 MOL      0.658842
      3 O1          5.8210    1.6700   -0.3730 o         1 MOL     -0.507634
      4 H1          6.5540    3.2410    1.7980 hc        1 MOL      0.082037
      5 H2          7.0960    4.5120    0.6770 hc        1 MOL      0.082037
      6 H3          5.3700    4.0890    0.7770 hc        1 MOL      0.082037
      7 N1          7.6910    2.8630   -1.0670 n         1 MOL     -0.572218
      8 C3          8.1660    1.9180   -2.0790 c3        1 MOL      0.195944
      9 C4          8.2990    0.4880   -1.4930 c         1 MOL      0.469629
     10 O2          7.8460   -0.4770   -2.0930 o         1 MOL     -0.410244
     11 C5          7.3170    2.0250   -3.3470 c3        1 MOL     -0.288207
     12 C6          7.9060    1.2100   -4.5120 c         1 MOL      0.626299
     13 O3          7.0650    0.8490   -5.4350 o         1 MOL     -0.629824
     14 O4          9.1130    0.9160   -4.5030 o         1 MOL     -0.629824
     15 H4          8.2150    3.7270   -1.0270 hn        1 MOL      0.328860
     16 H5          9.2120    2.1620   -2.2650 h1        1 MOL      0.011121
     17 H6          7.2120    3.0640   -3.6660 hc        1 MOL      0.092455
     18 H7          6.2850    1.7300   -3.1420 hc        1 MOL      0.092455
     19 N2          8.8290    0.3890   -0.2310 n         1 MOL     -0.429764
     20 C7          8.8670   -0.7340    0.6510 c3        1 MOL      0.011457
     21 C8          7.5120   -1.4030    1.1630 c         1 MOL      0.394771
     22 O5          7.6910   -2.5060    1.6670 o         1 MOL     -0.511219
     23 C9          9.7080   -0.3810    1.8980 c3        1 MOL      0.160579
     24 C10         9.0480    0.5620    2.8590 c3        1 MOL     -0.184591
     25 C11        10.1310    0.9890    3.8520 c3        1 MOL      0.028468
     26 C12         9.4670    1.5680    5.1120 c3        1 MOL      0.099128
     27 N3         10.3590    1.8600    6.2850 n4        1 MOL     -0.198738
     28 H8          9.2480    1.2180    0.1620 hn        1 MOL      0.234742
     29 H9          9.3870   -1.5300    0.1150 h1        1 MOL      0.119540
     30 H10        10.6290    0.0340    1.4970 hc        1 MOL     -0.013522
     31 H11        10.0440   -1.3400    2.2940 hc        1 MOL     -0.013522
     32 H12         8.2520   -0.0200    3.3440 hc        1 MOL      0.072026
     33 H13         8.6300    1.4510    2.3830 hc        1 MOL      0.072026
     34 H14        10.7880    1.7300    3.3960 hc        1 MOL      0.010660
     35 H15        10.7900    0.1990    4.2240 hc        1 MOL      0.010660
     36 H16         8.7240    0.8340    5.4280 hx        1 MOL      0.031907
     37 H17         8.8890    2.4510    4.8230 hx        1 MOL      0.031907
     38 H18        11.1210    2.4160    5.9200 hn        1 MOL      0.202116
     39 H19         9.8370    2.4490    6.9180 hn        1 MOL      0.202116
     40 H20        10.6580    1.0110    6.7300 hn        1 MOL      0.202116
     41 N4          6.3050   -0.8240    1.0570 n         1 MOL     -0.201155
     42 C13         5.0640   -1.4030    1.5360 c3        1 MOL     -0.226939
     43 C14         4.7760   -2.7910    0.8760 c         1 MOL      0.674467
     44 O6          5.1600   -3.1260   -0.2770 o         1 MOL     -0.435210
     45 C15         3.9280   -0.3390    1.1890 c3        1 MOL     -0.138058
     46 C16         2.5540   -0.8570    1.4760 c         1 MOL      0.604499
     47 O7          1.9530   -0.5400    2.5600 o         1 MOL     -0.739553
     48 O8          1.9420   -1.5830    0.7210 o         1 MOL     -0.739553
     49 H21         6.3000   -0.0030    0.4640 hn        1 MOL      0.117120
     50 H22         5.1150   -1.5280    2.6160 h1        1 MOL      0.090606
     51 H23         4.0410   -0.2320    0.1050 hc        1 MOL      0.124553
     52 H24         4.2110    0.6130    1.6380 hc        1 MOL      0.124553
     53 N5          4.0810   -3.6570    1.6070 n         1 MOL     -0.486956
     54 C17         3.7960   -4.9950    1.1770 c3        1 MOL     -0.002329
     55 C18         3.0740   -5.2240   -0.1420 c         1 MOL      0.450159
     56 O9          3.2720   -6.2740   -0.7940 o         1 MOL     -0.524295
     57 H25         3.5980   -3.3840    2.4490 hn        1 MOL      0.304637
     58 H26         3.0700   -5.3350    1.9100 h1        1 MOL      0.063841
     59 H27         4.6760   -5.6290    1.2810 h1        1 MOL      0.063841
     60 N6          2.3150   -4.1960   -0.5930 n         1 MOL     -0.243382
     61 C19         1.6780   -4.1130   -1.9190 c3        1 MOL     -0.029818
     62 C20         1.9150   -2.7040   -2.5910 c         1 MOL      0.430836
     63 O10         1.2570   -2.3620   -3.5950 o         1 MOL     -0.518236
     64 C21         0.2500   -4.6800   -1.9220 c3        1 MOL     -0.438382
     65 C22        -0.7590   -3.7200   -1.2880 c         1 MOL      0.685489
     66 N7         -2.0710   -3.9960   -1.4390 n         1 MOL     -0.752856
     67 O11        -0.5260   -2.7700   -0.5850 o         1 MOL     -0.652986
     68 H28         2.3640   -3.3330   -0.0820 hn        1 MOL      0.321640
     69 H29         2.2680   -4.7780   -2.5350 h1        1 MOL      0.148713
     70 H30         0.2070   -5.6390   -1.4080 hc        1 MOL      0.174127
     71 H31        -0.0470   -4.7620   -2.9700 hc        1 MOL      0.174127
     72 H32        -2.2860   -4.9110   -1.8210 hn        1 MOL      0.339043
     73 H33        -2.7490   -3.4060   -0.9920 hn        1 MOL      0.339043
     74 N8          2.9240   -1.9030   -2.1560 n         1 MOL     -0.085148
     75 C23         3.5070   -0.6800   -2.7340 c3        1 MOL     -0.065376
     76 C24         2.9120    0.7100   -2.3090 c         1 MOL      0.463180
     77 O12         3.3640    1.7700   -2.7840 o         1 MOL     -0.482489
     78 H34         3.4210   -2.1650   -1.3140 hn        1 MOL     -0.020453
     79 H35         3.3790   -0.6850   -3.8100 h1        1 MOL      0.120910
     80 H36         4.5850   -0.6840   -2.5470 h1        1 MOL      0.120910
     81 N9          1.8060    0.6920   -1.4560 n         1 MOL     -0.307633
     82 C25         1.0750    1.8610   -0.9540 c3        1 MOL      0.013622
     83 C26        -0.3170    1.4990   -0.4110 c         1 MOL      0.239353
     84 O13        -0.4580    0.4160    0.1190 o         1 MOL     -0.358243
     85 C27         1.8740    2.5570    0.1740 c3        1 MOL     -0.091153
     86 C28         1.3220    3.9350    0.5180 ca        1 MOL     -0.105117
     87 C29         1.3360    5.0220   -0.3980 ca        1 MOL     -0.024206
     88 C30         0.5510    4.0160    1.6840 ca        1 MOL     -0.024206
     89 C31         0.7900    6.2450    0.0050 ca        1 MOL     -0.416651
     90 C32        -0.0460    5.2100    2.0910 ca        1 MOL     -0.416651
     91 C33         0.1520    6.3590    1.2400 ca        1 MOL      0.486469
     92 O14        -0.2690    7.5630    1.6650 oh        1 MOL     -0.501282
     93 H37         1.5510   -0.2160   -1.0990 hn        1 MOL      0.222706
     94 H38         1.0370    2.5690   -1.7750 h1        1 MOL      0.094453
     95 H39         2.8670    2.7570   -0.2240 hc        1 MOL      0.067459
     96 H40         1.9020    1.9650    1.0810 hc        1 MOL      0.067459
     97 H41         1.9010    4.9540   -1.3170 ha        1 MOL      0.132915
     98 H42         0.5350    3.1650    2.3370 ha        1 MOL      0.132915
     99 H43         1.0250    7.1260   -0.5700 ha        1 MOL      0.188373
    100 H44        -0.6150    5.2610    3.0110 ha        1 MOL      0.188373
    101 H45        -0.4620    7.5750    2.6100 ho        1 MOL      0.365575
    102 N10        -1.3310    2.3240   -0.7950 n         1 MOL     -0.317413
    103 C34        -2.7450    2.1140   -0.4530 c3        1 MOL      0.155390
    104 C35        -3.3390    0.8210   -1.0470 c         1 MOL     -0.043935
    105 O15        -4.2160    0.2430   -0.4090 o         1 MOL     -0.449966
    106 C36        -3.5250    3.4040   -0.8630 c3        1 MOL      0.034485
    107 C37        -2.9850    4.7110   -0.2130 c3        1 MOL     -0.142040
    108 C38        -5.0570    3.3710   -0.5840 c3        1 MOL     -0.449980
    109 C39        -3.0920    4.7680    1.3340 c3        1 MOL     -0.382437
    110 H46        -1.0160    3.2240   -1.1160 hn        1 MOL      0.232255
    111 H47        -2.8510    2.0640    0.6350 h1        1 MOL      0.149406
    112 H48        -3.3390    3.5470   -1.9290 hc        1 MOL      0.003787
    113 H49        -3.6280    5.5090   -0.5750 hc        1 MOL      0.108407
    114 H50        -1.9620    5.0140   -0.4530 hc        1 MOL      0.108407
    115 H51        -5.4940    2.6210   -1.2480 hc        1 MOL      0.143399
    116 H52        -5.2740    3.1460    0.4580 hc        1 MOL      0.143399
    117 H53        -5.5010    4.3350   -0.8470 hc        1 MOL      0.143399
    118 H54        -2.8060    5.7660    1.6540 hc        1 MOL      0.104128
    119 H55        -4.1290    4.6850    1.6630 hc        1 MOL      0.104128
    120 H56        -2.4320    4.0020    1.7460 hc        1 MOL      0.104128
    121 N11        -2.9960    0.4470   -2.3090 n         1 MOL      0.085939
    122 C40        -3.3690   -0.7720   -3.0160 c3        1 MOL     -0.013517
    123 C41        -4.6910   -0.6840   -3.7390 c         1 MOL      0.151078
    124 O16        -5.2320   -1.7030   -4.1900 o         1 MOL     -0.438489
    125 C42        -2.2100   -1.1610   -4.0090 c3        1 MOL      0.367811
    126 O17        -0.9470   -0.6020   -3.7010 oh        1 MOL     -0.640775
    127 H57        -2.3680    1.0460   -2.8280 hn        1 MOL      0.184400
    128 H58        -3.4770   -1.6470   -2.3790 h1        1 MOL      0.084148
    129 H59        -2.4670   -0.6800   -4.9500 h1        1 MOL     -0.007443
    130 H60        -2.3190   -2.2200   -4.2730 h1        1 MOL     -0.007443
    131 H61        -0.2920   -1.2680   -3.4940 ho        1 MOL      0.385328
    132 N12        -5.3220    0.5020   -3.7980 n         1 MOL     -0.068974
    133 C43        -6.7320    0.8390   -3.9310 c3        1 MOL      0.172631
    134 C44        -7.6840    0.0510   -3.0100 c         1 MOL      0.344733
    135 O18        -8.8720   -0.1700   -3.3730 o         1 MOL     -0.482931
    136 C45        -7.1040    0.8480   -5.4410 c3        1 MOL     -0.598786
    137 H62        -4.6650    1.2670   -3.7860 hn        1 MOL      0.145258
    138 H63        -6.8650    1.8810   -3.6330 h1        1 MOL      0.066491
    139 H64        -6.2510    1.2480   -5.9920 hc        1 MOL      0.173237
    140 H65        -7.3240   -0.1950   -5.6630 hc        1 MOL      0.173237
    141 H66        -7.9710    1.4840   -5.5900 hc        1 MOL      0.173237
    142 N13        -7.1960   -0.4790   -1.8810 n         1 MOL     -0.286164
    143 C46        -8.0400   -1.1440   -0.8640 c3        1 MOL      0.083913
    144 C47        -8.5400   -0.2920    0.3130 c         1 MOL      0.648502
    145 O19        -7.9990    0.7900    0.5610 o         1 MOL     -0.518443
    146 C48        -7.2900   -2.3720   -0.3730 c3        1 MOL      0.034789
    147 H67        -6.2030   -0.3970   -1.7330 hn        1 MOL      0.196950
    148 H68        -8.9400   -1.3850   -1.4310 h1        1 MOL      0.026407
    149 H69        -6.7330   -2.9060   -1.1320 hc        1 MOL     -0.009597
    150 H70        -6.6440   -2.2600    0.4950 hc        1 MOL     -0.009597
    151 H71        -7.9500   -3.1610    0.0020 hc        1 MOL     -0.009597
    152 N14        -9.5980   -0.7230    0.9970 n         1 MOL     -0.631989
    153 C49       -10.2220   -0.0890    2.2060 c3        1 MOL      0.204569
    154 C50       -10.5290    1.4180    1.9900 c         1 MOL      0.373910
    155 O20       -10.5080    2.1560    2.9510 o         1 MOL     -0.494307
    156 C51        -9.3290   -0.3680    3.4240 c3        1 MOL      0.045095
    157 C52        -9.0810   -1.9150    3.6230 c3        1 MOL     -0.145561
    158 C53        -7.9230   -2.0960    4.5710 c         1 MOL      0.692474
    159 O21        -7.9940   -1.5710    5.6990 o         1 MOL     -0.691698
    160 O22        -6.9810   -2.8560    4.3420 o         1 MOL     -0.691698
    161 H72       -10.0100   -1.6450    0.8630 hn        1 MOL      0.303007
    162 H73       -11.2100   -0.5080    2.4040 h1        1 MOL      0.014291
    163 H74        -9.8510    0.0280    4.2860 hc        1 MOL      0.017726
    164 H75        -8.3770    0.0940    3.1840 hc        1 MOL      0.017726
    165 H76        -8.7970   -2.3830    2.6870 hc        1 MOL      0.011614
    166 H77        -9.9470   -2.4260    4.0370 hc        1 MOL      0.011614
    167 N15       -10.7090    1.8530    0.7710 n         1 MOL     -0.227869
    168 C54       -10.6680    3.2840    0.4030 c3        1 MOL     -0.267469
    169 H78       -10.9390    3.3970   -0.6470 h1        1 MOL      0.120131
    170 H79       -11.3730    3.8390    1.0220 h1        1 MOL      0.120131
    171 H80        -9.6620    3.6710    0.5610 h1        1 MOL      0.120131
    172 H81       -10.9170    1.1530    0.0660 hn        1 MOL      0.207634
    173 Ca1        -0.3890   -1.6870    1.8150 Ca        1 MOL      1.788758
    174 O23        -2.8670   -1.4120    1.1730 oh        1 MOL     -0.837552
    175 H82        -3.3730   -1.0800    0.4350 ho        1 MOL      0.416592
    176 H83        -3.4570   -2.0450    1.5940 ho        1 MOL      0.416592
    177 O24        -1.9590   -2.3580    4.0620 oh        1 MOL     -0.837552
    178 H84        -2.8510   -2.6560    3.9120 ho        1 MOL      0.416592
    179 H85        -1.8120   -2.4910    4.9930 ho        1 MOL      0.416592
    180 O25        -1.7070   -4.0790    1.7560 oh        1 MOL     -0.837552
    181 H86        -1.6750   -4.8840    2.2690 ho        1 MOL      0.416592
    182 H87        -2.5190   -4.1450    1.2530 ho        1 MOL      0.416592
    183 O26        -0.9830    0.5290    3.1170 oh        1 MOL     -0.837552
    184 H88        -0.4910    1.0280    3.7790 ho        1 MOL      0.416592
    185 H89        -1.8130    0.9900    3.0360 ho        1 MOL      0.416592
    186 O27         0.9520   -3.8350    2.7330 oh        1 MOL     -0.837552
    187 H90         0.8300   -4.7750    2.7260 ho        1 MOL      0.416592
    188 H91         1.1430   -3.6160    3.6470 ho        1 MOL      0.416592
@<TRIPOS>BOND
     1    1    2 1   
     2    1    4 1   
     3    1    5 1   
     4    1    6 1   
     5    2    3 2   
     6    2    7 1   
     7    7    8 1   
     8    7   15 1   
     9    8    9 1   
    10    8   11 1   
    11    8   16 1   
    12    9   10 2   
    13    9   19 1   
    14   11   12 1   
    15   11   17 1   
    16   11   18 1   
    17   12   13 1   
    18   12   14 1   
    19   19   20 1   
    20   19   28 1   
    21   20   21 1   
    22   20   23 1   
    23   20   29 1   
    24   21   22 2   
    25   21   41 1   
    26   23   24 1   
    27   23   30 1   
    28   23   31 1   
    29   24   25 1   
    30   24   32 1   
    31   24   33 1   
    32   25   26 1   
    33   25   34 1   
    34   25   35 1   
    35   26   27 1   
    36   26   36 1   
    37   26   37 1   
    38   27   38 1   
    39   27   39 1   
    40   27   40 1   
    41   41   42 1   
    42   41   49 1   
    43   42   43 1   
    44   42   45 1   
    45   42   50 1   
    46   43   44 2   
    47   43   53 1   
    48   45   46 1   
    49   45   51 1   
    50   45   52 1   
    51   46   47 1   
    52   46   48 1   
    53   53   54 1   
    54   53   57 1   
    55   54   55 1   
    56   54   58 1   
    57   54   59 1   
    58   55   56 2   
    59   55   60 1   
    60   60   61 1   
    61   60   68 1   
    62   61   62 1   
    63   61   64 1   
    64   61   69 1   
    65   62   63 2   
    66   62   74 1   
    67   64   65 1   
    68   64   70 1   
    69   64   71 1   
    70   65   66 1   
    71   65   67 2   
    72   66   72 1   
    73   66   73 1   
    74   74   75 1   
    75   74   78 1   
    76   75   76 1   
    77   75   79 1   
    78   75   80 1   
    79   76   77 2   
    80   76   81 1   
    81   81   82 1   
    82   81   93 1   
    83   82   83 1   
    84   82   85 1   
    85   82   94 1   
    86   83   84 2   
    87   83  102 1   
    88   85   86 1   
    89   85   95 1   
    90   85   96 1   
    91   86   87 ar  
    92   86   88 ar  
    93   87   89 ar  
    94   87   97 1   
    95   88   90 ar  
    96   88   98 1   
    97   89   91 ar  
    98   89   99 1   
    99   90   91 ar  
   100   90  100 1   
   101   91   92 1   
   102   92  101 1   
   103  102  103 1   
   104  102  110 1   
   105  103  104 1   
   106  103  106 1   
   107  103  111 1   
   108  104  105 2   
   109  104  121 1   
   110  106  107 1   
   111  106  108 1   
   112  106  112 1   
   113  107  109 1   
   114  107  113 1   
   115  107  114 1   
   116  108  115 1   
   117  108  116 1   
   118  108  117 1   
   119  109  118 1   
   120  109  119 1   
   121  109  120 1   
   122  121  122 1   
   123  121  127 1   
   124  122  123 1   
   125  122  125 1   
   126  122  128 1   
   127  123  124 2   
   128  123  132 1   
   129  125  126 1   
   130  125  129 1   
   131  125  130 1   
   132  126  131 1   
   133  132  133 1   
   134  132  137 1   
   135  133  134 1   
   136  133  136 1   
   137  133  138 1   
   138  134  135 2   
   139  134  142 1   
   140  136  139 1   
   141  136  140 1   
   142  136  141 1   
   143  142  143 1   
   144  142  147 1   
   145  143  144 1   
   146  143  146 1   
   147  143  148 1   
   148  144  145 2   
   149  144  152 1   
   150  146  149 1   
   151  146  150 1   
   152  146  151 1   
   153  152  153 1   
   154  152  161 1   
   155  153  154 1   
   156  153  156 1   
   157  153  162 1   
   158  154  155 2   
   159  154  167 1   
   160  156  157 1   
   161  156  163 1   
   162  156  164 1   
   163  157  158 1   
   164  157  165 1   
   165  157  166 1   
   166  158  159 1   
   167  158  160 1   
   168  167  168 1   
   169  167  172 1   
   170  168  169 1   
   171  168  170 1   
   172  168  171 1   
   173  174  175 1   
   174  174  176 1   
   175  177  178 1   
   176  177  179 1   
   177  180  181 1   
   178  180  182 1   
   179  183  184 1   
   180  183  185 1   
   181  186  187 1   
   182  186  188 1   
@<TRIPOS>SUBSTRUCTURE
     1 MOL         1 TEMP              0 ****  ****    0 ROOT
