@<TRIPOS>MOLECULE
MOL
  195   189     1     0     0
SMALL
resp


@<TRIPOS>ATOM
      1 C1          4.4560   -5.1060    0.0250 c3        1 MOL     -0.491459
      2 C2          3.5620   -3.8620   -0.2870 c         1 MOL      0.657016
      3 O1          4.1350   -2.8410   -0.6050 o         1 MOL     -0.599847
      4 H1          3.8980   -6.0170   -0.1900 hc        1 MOL      0.131591
      5 H2          5.3520   -5.0740   -0.5940 hc        1 MOL      0.131591
      6 H3          4.7410   -5.0950    1.0770 hc        1 MOL      0.131591
      7 N1          2.2790   -3.8800   -0.2280 n         1 MOL     -0.309892
      8 C3          1.3820   -4.8880    0.3820 c3        1 MOL     -0.201106
      9 C4          0.6590   -5.6820   -0.8100 c         1 MOL      0.536087
     10 O2          0.0500   -6.7100   -0.5470 o         1 MOL     -0.541996
     11 C5          0.3380   -4.2210    1.3060 c3        1 MOL     -0.127344
     12 C6          0.9000   -3.1740    2.2560 c         1 MOL      0.728705
     13 O3          1.5870   -3.6170    3.2070 o         1 MOL     -0.766608
     14 O4          0.5930   -1.9770    2.1760 o         1 MOL     -0.766608
     15 H4          1.7360   -3.0500   -0.4310 hn        1 MOL      0.201421
     16 H5          2.0460   -5.5360    0.9460 h1        1 MOL      0.131086
     17 H6         -0.2380   -4.9930    1.8050 hc        1 MOL      0.102847
     18 H7         -0.3770   -3.7160    0.6580 hc        1 MOL      0.102847
     19 N2          0.8120   -5.2250   -2.0540 n         1 MOL     -0.123097
     20 C7          0.1530   -5.7790   -3.2090 c3        1 MOL     -0.544708
     21 C8         -1.3410   -5.7850   -3.2120 c         1 MOL      0.650885
     22 O5         -1.9160   -6.4220   -4.0480 o         1 MOL     -0.548783
     23 C9          0.6860   -5.1420   -4.5340 c3        1 MOL      0.293650
     24 C10         0.4320   -3.6090   -4.5260 c3        1 MOL     -0.009961
     25 C11         2.2250   -5.3450   -4.6460 c3        1 MOL     -0.416683
     26 C12         0.5840   -2.6560   -5.7080 c3        1 MOL     -0.119319
     27 H8          1.4400   -4.4460   -2.1680 hn        1 MOL      0.138121
     28 H9          0.4630   -6.8240   -3.2560 h1        1 MOL      0.183399
     29 H10         0.1360   -5.6330   -5.3290 hc        1 MOL     -0.007432
     30 H11         1.1150   -3.1870   -3.7950 hc        1 MOL      0.057114
     31 H12        -0.5860   -3.3710   -4.2230 hc        1 MOL      0.057114
     32 H13         2.6670   -4.8420   -3.7900 hc        1 MOL      0.098030
     33 H14         2.4600   -6.4120   -4.6530 hc        1 MOL      0.098030
     34 H15         2.5580   -4.8820   -5.5750 hc        1 MOL      0.098030
     35 H16         1.5050   -2.9300   -6.2310 hc        1 MOL      0.019831
     36 H17        -0.2920   -2.8220   -6.3450 hc        1 MOL      0.019831
     37 H18         0.5580   -1.6120   -5.3980 hc        1 MOL      0.019831
     38 N3         -2.0500   -4.8840   -2.4290 n         1 MOL     -0.341443
     39 C13        -3.4770   -4.6340   -2.5120 c3        1 MOL      0.122051
     40 C14        -4.0250   -4.3090   -1.1110 c         1 MOL      0.583950
     41 O6         -3.2070   -3.8910   -0.1990 o         1 MOL     -0.516049
     42 C15        -3.7140   -3.5260   -3.5670 c3        1 MOL     -0.270485
     43 C16        -5.2060   -3.2530   -3.8380 c         1 MOL      0.706392
     44 O7         -5.9900   -4.2020   -3.5620 o         1 MOL     -0.719204
     45 O8         -5.5590   -2.1830   -4.3660 o         1 MOL     -0.719204
     46 H19        -1.6540   -4.5930   -1.5490 hn        1 MOL      0.145396
     47 H20        -3.9260   -5.5870   -2.7650 h1        1 MOL      0.002623
     48 H21        -3.3060   -3.7520   -4.5470 hc        1 MOL      0.072382
     49 H22        -3.2830   -2.6650   -3.0580 hc        1 MOL      0.072382
     50 N4         -5.2930   -4.5920   -0.8300 n         1 MOL     -0.478366
     51 C17        -5.8690   -4.4230    0.4770 c3        1 MOL     -0.090448
     52 C18        -5.9840   -2.9110    0.7410 c         1 MOL      0.587650
     53 O9         -6.0810   -2.0510   -0.1930 o         1 MOL     -0.507462
     54 H23        -5.9340   -4.8320   -1.5750 hn        1 MOL      0.324230
     55 H24        -5.3580   -4.8700    1.3270 h1        1 MOL      0.088996
     56 H25        -6.9030   -4.7420    0.5120 h1        1 MOL      0.088996
     57 N5         -5.6820   -2.4720    1.9590 n         1 MOL     -0.830779
     58 C19        -5.5110   -1.0680    2.3250 c3        1 MOL      0.763751
     59 C20        -6.6610   -0.5530    3.1500 c         1 MOL      0.514761
     60 O10        -7.4550   -1.2920    3.8120 o         1 MOL     -0.552793
     61 C21        -4.1790   -0.9090    3.0810 c3        1 MOL     -0.719449
     62 C22        -4.0970   -1.8070    4.2610 c         1 MOL      0.791662
     63 O11        -3.9580   -3.0250    4.1360 o         1 MOL     -0.735960
     64 O12        -4.3300   -1.3580    5.4010 o         1 MOL     -0.735960
     65 H26        -5.5880   -3.1300    2.7220 hn        1 MOL      0.400922
     66 H27        -5.5430   -0.3800    1.4800 h1        1 MOL     -0.044576
     67 H28        -3.8560    0.1130    3.3100 hc        1 MOL      0.131022
     68 H29        -3.3510   -1.2730    2.4610 hc        1 MOL      0.131022
     69 N6         -6.8810    0.7930    3.1080 n         1 MOL     -0.609150
     70 C23        -6.4940    1.7540    2.0780 c3        1 MOL      0.121790
     71 C24        -7.2500    1.5210    0.6750 c         1 MOL      0.507950
     72 O13        -7.9870    0.5600    0.6000 o         1 MOL     -0.488778
     73 H30        -7.6080    1.0970    3.7390 hn        1 MOL      0.308256
     74 H31        -5.4130    1.7350    1.9680 h1        1 MOL      0.003765
     75 H32        -6.6960    2.7720    2.4410 h1        1 MOL      0.003765
     76 N7         -7.0320    2.3790   -0.3790 n         1 MOL     -0.483942
     77 C25        -5.9990    3.4330   -0.4020 c3        1 MOL     -0.020284
     78 C26        -4.5680    2.9310   -0.2630 c         1 MOL      0.670634
     79 O14        -4.3400    1.7870    0.0730 o         1 MOL     -0.495996
     80 C27        -6.3790    4.7450    0.2020 c3        1 MOL      0.069146
     81 C28        -7.7910    5.2520   -0.1680 c3        1 MOL     -0.315803
     82 C29        -8.0520    6.5950    0.5300 c         1 MOL      0.805059
     83 N8         -8.8210    6.6750    1.6300 n         1 MOL     -0.897209
     84 O15        -7.5750    7.6070    0.1630 o         1 MOL     -0.576933
     85 H33        -7.3920    2.0580   -1.2590 hn        1 MOL      0.332374
     86 H34        -6.0310    3.6710   -1.4620 h1        1 MOL      0.096180
     87 H35        -5.6910    5.5780    0.0080 hc        1 MOL     -0.011140
     88 H36        -6.3330    4.5940    1.2780 hc        1 MOL     -0.011140
     89 H37        -8.5490    4.4970    0.0620 hc        1 MOL      0.075382
     90 H38        -7.8420    5.4150   -1.2500 hc        1 MOL      0.075382
     91 H39        -8.9190    5.8570    2.2240 hn        1 MOL      0.376699
     92 H40        -9.0670    7.5640    2.0290 hn        1 MOL      0.376699
     93 N9         -3.5700    3.7810   -0.4520 n         1 MOL     -0.545364
     94 C30        -2.1120    3.4310   -0.3420 c3        1 MOL     -0.139060
     95 C31        -1.6140    2.7370   -1.6700 c         1 MOL      0.639612
     96 O16        -2.0680    3.1720   -2.7440 o         1 MOL     -0.587097
     97 C32        -1.3490    4.7260    0.0470 c3        1 MOL      0.647687
     98 C33         0.1010    4.5260    0.3430 c3        1 MOL     -0.383653
     99 C34        -1.8010    5.6320    1.2050 c3        1 MOL     -0.383653
    100 H41        -3.8750    4.7160   -0.6750 hn        1 MOL      0.247710
    101 H42        -1.9290    2.7550    0.4900 h1        1 MOL      0.064750
    102 H43        -1.3460    5.3380   -0.8570 hc        1 MOL     -0.124796
    103 H44         0.5370    3.8990   -0.4360 hc        1 MOL      0.078828
    104 H45         0.6500    5.4560    0.2220 hc        1 MOL      0.078828
    105 H46         0.2830    4.1040    1.3330 hc        1 MOL      0.078828
    106 H47        -1.3520    6.6140    1.0420 hc        1 MOL      0.078828
    107 H48        -2.8860    5.6210    1.1790 hc        1 MOL      0.078828
    108 H49        -1.5330    5.1830    2.1670 hc        1 MOL      0.078828
    109 N10        -0.7940    1.6830   -1.6360 n         1 MOL     -0.532936
    110 C35        -0.2600    0.8900   -2.8230 c3        1 MOL      0.370700
    111 C36         1.2070    1.2320   -3.1520 c         1 MOL      0.274044
    112 O17         1.7940    0.6130   -4.0640 o         1 MOL     -0.509438
    113 C37        -0.4760   -0.6160   -2.5900 c3        1 MOL     -0.322630
    114 C38         0.1010   -1.0110   -1.3230 c         1 MOL      0.693186
    115 N11        -0.7750   -1.1870   -0.2810 n         1 MOL     -0.871100
    116 O18         1.3040   -1.0520   -1.2170 o         1 MOL     -0.511418
    117 H50        -0.5570    1.2950   -0.7310 hn        1 MOL      0.301063
    118 H51        -0.8620    1.0530   -3.7140 h1        1 MOL      0.064439
    119 H52        -0.0160   -1.2580   -3.3320 hc        1 MOL      0.076327
    120 H53        -1.5280   -0.9060   -2.6180 hc        1 MOL      0.076327
    121 H54        -1.7450   -1.3600   -0.5080 hn        1 MOL      0.394121
    122 H55        -0.3400   -1.4300    0.5980 hn        1 MOL      0.394121
    123 N12         1.8140    2.1540   -2.3960 n         1 MOL     -0.140566
    124 C39         3.2370    2.4380   -2.5820 c3        1 MOL     -0.058147
    125 C40         4.0030    2.8550   -1.2480 c         1 MOL      0.625625
    126 O19         3.3700    3.2770   -0.2510 o         1 MOL     -0.472538
    127 C41         3.3370    3.5370   -3.6360 c3        1 MOL      0.114764
    128 C42         2.5090    4.8320   -3.3850 ca        1 MOL     -0.013583
    129 C43         3.1700    6.0260   -2.8660 ca        1 MOL     -0.087544
    130 C44         1.1350    4.8770   -3.6960 ca        1 MOL     -0.087544
    131 C45         2.4200    7.1840   -2.5460 ca        1 MOL     -0.333179
    132 C46         0.4130    6.0710   -3.4040 ca        1 MOL     -0.333179
    133 C47         1.0360    7.1350   -2.7890 ca        1 MOL      0.376662
    134 O20         0.2980    8.2080   -2.4650 oh        1 MOL     -0.509339
    135 H56         1.3010    2.5640   -1.6360 hn        1 MOL      0.044029
    136 H57         3.7910    1.5550   -2.8830 h1        1 MOL      0.118275
    137 H58         2.8950    3.1680   -4.5570 hc        1 MOL     -0.040655
    138 H59         4.3980    3.7760   -3.7660 hc        1 MOL     -0.040655
    139 H60         4.2440    6.0660   -2.7430 ha        1 MOL      0.130287
    140 H61         0.6230    4.0290   -4.1240 ha        1 MOL      0.130287
    141 H62         2.9620    8.0590   -2.2310 ha        1 MOL      0.175303
    142 H63        -0.6690    6.1200   -3.4630 ha        1 MOL      0.175303
    143 H64        -0.6410    8.0610   -2.6140 ho        1 MOL      0.357576
    144 N13         5.3230    2.8340   -1.2460 n         1 MOL     -0.563847
    145 C48         6.1830    2.9970   -0.0170 c3        1 MOL      0.051841
    146 C49         7.0830    1.7970    0.1000 c         1 MOL      0.594248
    147 O21         8.1470    1.7510   -0.5110 o         1 MOL     -0.554763
    148 C50         6.8090    4.3680   -0.0400 c3        1 MOL     -0.162079
    149 C51         7.4950    4.6850    1.2850 c3        1 MOL      0.027499
    150 C52         6.3770    5.0710    2.3060 c         1 MOL      0.665258
    151 O22         5.7440    4.1910    3.0090 o         1 MOL     -0.712614
    152 O23         6.2130    6.3040    2.4950 o         1 MOL     -0.712614
    153 H65         5.7770    2.7630   -2.1490 hn        1 MOL      0.339208
    154 H66         5.5930    2.9090    0.8920 h1        1 MOL     -0.039786
    155 H67         6.1280    5.1340   -0.3750 hc        1 MOL      0.057825
    156 H68         7.6230    4.3310   -0.7590 hc        1 MOL      0.057825
    157 H69         8.1550    5.5370    1.1640 hc        1 MOL     -0.037070
    158 H70         8.0740    3.8260    1.6340 hc        1 MOL     -0.037070
    159 N14         6.6070    0.6910    0.7070 n         1 MOL     -0.410017
    160 C53         7.2150   -0.6600    0.5750 c3        1 MOL     -0.057120
    161 C54         7.3550   -1.1790   -0.9160 c         1 MOL      0.297768
    162 O24         7.9720   -2.2310   -1.1180 o         1 MOL     -0.529348
    163 C55         6.5200   -1.6910    1.4300 c3        1 MOL      0.183953
    164 C56         6.5330   -1.4430    2.9210 c3        1 MOL     -0.109344
    165 C57         5.7010   -2.4750    3.7200 c         1 MOL      0.598768
    166 O25         6.2080   -3.2000    4.6450 o         1 MOL     -0.683327
    167 O26         4.4340   -2.4550    3.5330 o         1 MOL     -0.683327
    168 H71         5.6720    0.6720    1.0720 hn        1 MOL      0.298025
    169 H72         8.2350   -0.5570    0.9590 h1        1 MOL      0.101453
    170 H73         6.9130   -2.6890    1.2230 hc        1 MOL      0.025331
    171 H74         5.4920   -1.6720    1.0640 hc        1 MOL      0.025331
    172 H75         6.1990   -0.4250    3.0950 hc        1 MOL     -0.029594
    173 H76         7.5930   -1.5360    3.1370 hc        1 MOL     -0.029594
    174 N15         6.7390   -0.5540   -1.9160 n         1 MOL      0.116822
    175 C58         6.6430   -0.8130   -3.2950 c3        1 MOL     -0.394357
    176 H77         6.3790    0.1050   -3.8200 h1        1 MOL      0.128607
    177 H78         7.6010   -1.1800   -3.6630 h1        1 MOL      0.128607
    178 H79         5.8740   -1.5660   -3.4710 h1        1 MOL      0.128607
    179 H80         6.3100    0.3330   -1.6760 hn        1 MOL      0.013448
    180 Ca1         2.2270   -1.3570    4.2420 Ca        1 MOL      1.730004
    181 O27         2.6200    0.3150    6.1940 oh        1 MOL     -0.822875
    182 H81         2.1680    1.1730    6.2130 ho        1 MOL      0.416020
    183 H82         2.6750    0.0540    7.1140 ho        1 MOL      0.416020
    184 O28         2.4610   -2.9210    6.3770 oh        1 MOL     -0.822875
    185 H83         1.7280   -3.2150    6.9270 ho        1 MOL      0.416020
    186 H84         3.1360   -3.5950    6.5050 ho        1 MOL      0.416020
    187 O29         3.3590    0.5520    2.7000 oh        1 MOL     -0.822875
    188 H85         3.6530    0.8440    1.8380 ho        1 MOL      0.416020
    189 H86         3.7430    1.1740    3.3100 ho        1 MOL      0.416020
    190 O30         0.6420    0.7320    3.9200 oh        1 MOL     -0.822875
    191 H87         0.6050    0.9700    2.9930 ho        1 MOL      0.416020
    192 H88        -0.1430    1.1440    4.2980 ho        1 MOL      0.416020
    193 O31        -0.0840   -1.3600    5.7910 oh        1 MOL     -0.822875
    194 H89        -0.6300   -0.5840    5.8900 ho        1 MOL      0.416020
    195 H90        -0.7010   -2.0530    5.5600 ho        1 MOL      0.416020
@<TRIPOS>BOND
     1    1    2 1   
     2    1    4 1   
     3    1    5 1   
     4    1    6 1   
     5    2    3 2   
     6    2    7 1   
     7    7    8 1   
     8    7   15 1   
     9    8    9 1   
    10    8   11 1   
    11    8   16 1   
    12    9   10 2   
    13    9   19 1   
    14   11   12 1   
    15   11   17 1   
    16   11   18 1   
    17   12   13 1   
    18   12   14 1   
    19   19   20 1   
    20   19   27 1   
    21   20   21 1   
    22   20   23 1   
    23   20   28 1   
    24   21   22 2   
    25   21   38 1   
    26   23   24 1   
    27   23   25 1   
    28   23   29 1   
    29   24   26 1   
    30   24   30 1   
    31   24   31 1   
    32   25   32 1   
    33   25   33 1   
    34   25   34 1   
    35   26   35 1   
    36   26   36 1   
    37   26   37 1   
    38   38   39 1   
    39   38   46 1   
    40   39   40 1   
    41   39   42 1   
    42   39   47 1   
    43   40   41 2   
    44   40   50 1   
    45   42   43 1   
    46   42   48 1   
    47   42   49 1   
    48   43   44 1   
    49   43   45 1   
    50   50   51 1   
    51   50   54 1   
    52   51   52 1   
    53   51   55 1   
    54   51   56 1   
    55   52   53 2   
    56   52   57 1   
    57   57   58 1   
    58   57   65 1   
    59   58   59 1   
    60   58   61 1   
    61   58   66 1   
    62   59   60 2   
    63   59   69 1   
    64   61   62 1   
    65   61   67 1   
    66   61   68 1   
    67   62   63 1   
    68   62   64 1   
    69   69   70 1   
    70   69   73 1   
    71   70   71 1   
    72   70   74 1   
    73   70   75 1   
    74   71   72 2   
    75   71   76 1   
    76   76   77 1   
    77   76   85 1   
    78   77   78 1   
    79   77   80 1   
    80   77   86 1   
    81   78   79 2   
    82   78   93 1   
    83   80   81 1   
    84   80   87 1   
    85   80   88 1   
    86   81   82 1   
    87   81   89 1   
    88   81   90 1   
    89   82   83 1   
    90   82   84 2   
    91   83   91 1   
    92   83   92 1   
    93   93   94 1   
    94   93  100 1   
    95   94   95 1   
    96   94   97 1   
    97   94  101 1   
    98   95   96 2   
    99   95  109 1   
   100   97   98 1   
   101   97   99 1   
   102   97  102 1   
   103   98  103 1   
   104   98  104 1   
   105   98  105 1   
   106   99  106 1   
   107   99  107 1   
   108   99  108 1   
   109  109  110 1   
   110  109  117 1   
   111  110  111 1   
   112  110  113 1   
   113  110  118 1   
   114  111  112 2   
   115  111  123 1   
   116  113  114 1   
   117  113  119 1   
   118  113  120 1   
   119  114  115 1   
   120  114  116 2   
   121  115  121 1   
   122  115  122 1   
   123  123  124 1   
   124  123  135 1   
   125  124  125 1   
   126  124  127 1   
   127  124  136 1   
   128  125  126 2   
   129  125  144 1   
   130  127  128 1   
   131  127  137 1   
   132  127  138 1   
   133  128  129 ar  
   134  128  130 ar  
   135  129  131 ar  
   136  129  139 1   
   137  130  132 ar  
   138  130  140 1   
   139  131  133 ar  
   140  131  141 1   
   141  132  133 ar  
   142  132  142 1   
   143  133  134 1   
   144  134  143 1   
   145  144  145 1   
   146  144  153 1   
   147  145  146 1   
   148  145  148 1   
   149  145  154 1   
   150  146  147 2   
   151  146  159 1   
   152  148  149 1   
   153  148  155 1   
   154  148  156 1   
   155  149  150 1   
   156  149  157 1   
   157  149  158 1   
   158  150  151 1   
   159  150  152 1   
   160  159  160 1   
   161  159  168 1   
   162  160  161 1   
   163  160  163 1   
   164  160  169 1   
   165  161  162 2   
   166  161  174 1   
   167  163  164 1   
   168  163  170 1   
   169  163  171 1   
   170  164  165 1   
   171  164  172 1   
   172  164  173 1   
   173  165  166 1   
   174  165  167 1   
   175  174  175 1   
   176  174  179 1   
   177  175  176 1   
   178  175  177 1   
   179  175  178 1   
   180  181  182 1   
   181  181  183 1   
   182  184  185 1   
   183  184  186 1   
   184  187  188 1   
   185  187  189 1   
   186  190  191 1   
   187  190  192 1   
   188  193  194 1   
   189  193  195 1   
@<TRIPOS>SUBSTRUCTURE
     1 MOL         1 TEMP              0 ****  ****    0 ROOT
