@<TRIPOS>MOLECULE
MOL
  181   177     1     0     0
SMALL
resp


@<TRIPOS>ATOM
      1 C1         -4.8350   -1.3470   -3.2350 c3        1 MOL     -0.525839
      2 C2         -6.1250   -0.6330   -2.7520 c         1 MOL      0.748665
      3 O1         -6.0350    0.3150   -1.9600 o         1 MOL     -0.613749
      4 H1         -4.9400   -1.6130   -4.2870 hc        1 MOL      0.139500
      5 H2         -3.9820   -0.6800   -3.1120 hc        1 MOL      0.139500
      6 H3         -4.6770   -2.2510   -2.6460 hc        1 MOL      0.139500
      7 N1         -7.2410   -1.0540   -3.2110 n         1 MOL     -0.550581
      8 C3         -8.5930   -0.6610   -2.9000 c3        1 MOL      0.208769
      9 C4         -8.9070   -0.9390   -1.4150 c         1 MOL      0.571111
     10 O2         -9.0780   -2.0740   -0.9910 o         1 MOL     -0.550509
     11 C5         -9.5760   -1.4740   -3.7480 c3        1 MOL     -0.245788
     12 C6        -10.9990   -1.1140   -3.4180 c         1 MOL      0.730852
     13 O3        -11.3000    0.0410   -3.1360 o         1 MOL     -0.734158
     14 O4        -11.8080   -2.0550   -3.3270 o         1 MOL     -0.734158
     15 H4         -7.1870   -1.8970   -3.7580 hn        1 MOL      0.280487
     16 H5         -8.8330    0.3650   -3.1950 h1        1 MOL     -0.006973
     17 H6         -9.4430   -2.5300   -3.4800 hc        1 MOL      0.032166
     18 H7         -9.4550   -1.3830   -4.8260 hc        1 MOL      0.032166
     19 N2         -9.0600    0.0780   -0.6470 n         1 MOL     -0.369606
     20 C7         -9.1850   -0.0900    0.8090 c3        1 MOL      0.197572
     21 C8         -7.8150   -0.5410    1.3720 c         1 MOL      0.261309
     22 O5         -7.7900   -0.9650    2.5110 o         1 MOL     -0.526902
     23 C9         -9.7260    1.2060    1.4400 c3        1 MOL     -0.332260
     24 H8         -9.0550    1.0100   -1.0420 hn        1 MOL      0.238641
     25 H9         -9.8890   -0.9140    0.9210 h1        1 MOL      0.101225
     26 H10       -10.6910    1.3620    0.9650 hc        1 MOL      0.088474
     27 H11       -10.0320    1.0620    2.4750 hc        1 MOL      0.088474
     28 H12        -9.1460    2.1120    1.2320 hc        1 MOL      0.088474
     29 N3         -6.7260   -0.6020    0.6340 n         1 MOL     -0.052908
     30 C10        -5.3810   -1.0700    1.1420 c3        1 MOL      0.041242
     31 C11        -4.9120   -0.4920    2.5120 c         1 MOL      0.393097
     32 O6         -4.5950   -1.2610    3.3740 o         1 MOL     -0.469631
     33 C12        -5.3450   -2.6190    1.1540 c3        1 MOL      0.177306
     34 C13        -3.9640   -3.1780    1.1150 c         1 MOL      0.501093
     35 O7         -3.7820   -4.3910    1.2580 o         1 MOL     -0.692323
     36 O8         -2.9670   -2.4200    1.0170 o         1 MOL     -0.692323
     37 H13        -6.7620   -0.3360   -0.3360 hn        1 MOL      0.027162
     38 H14        -4.6140   -0.8320    0.4020 h1        1 MOL      0.018649
     39 H15        -5.9010   -2.9770    0.2830 hc        1 MOL     -0.028452
     40 H16        -5.9450   -2.9860    1.9830 hc        1 MOL     -0.028452
     41 N4         -5.1560    0.7890    2.6830 n         1 MOL     -0.080433
     42 C14        -5.0930    1.5600    3.9190 c3        1 MOL     -0.241026
     43 C15        -3.7750    2.2780    4.2610 c         1 MOL      0.566422
     44 O9         -3.6790    2.9260    5.3030 o         1 MOL     -0.592207
     45 H17        -5.6180    1.2170    1.8890 hn        1 MOL      0.167156
     46 H18        -5.2360    0.8460    4.7290 h1        1 MOL      0.111200
     47 H19        -5.8710    2.3240    3.8770 h1        1 MOL      0.111200
     48 N5         -2.7810    2.4020    3.3960 n         1 MOL     -0.216691
     49 C16        -1.5390    3.0950    3.5930 c3        1 MOL      0.058443
     50 C17        -1.3670    4.2080    2.5460 c         1 MOL      0.434358
     51 O10        -1.8880    4.0590    1.4410 o         1 MOL     -0.482853
     52 C18        -0.4320    2.0310    3.5730 c3        1 MOL     -0.161189
     53 C19        -0.5680    0.8680    4.4830 c         1 MOL      0.661182
     54 N6         -1.1580   -0.2700    4.0470 n         1 MOL     -0.764071
     55 O11        -0.1900    0.8770    5.6610 o         1 MOL     -0.596352
     56 H20        -3.0120    1.9240    2.5360 hn        1 MOL      0.122418
     57 H21        -1.4800    3.5990    4.5530 h1        1 MOL      0.043975
     58 H22         0.5240    2.5020    3.8000 hc        1 MOL      0.069426
     59 H23        -0.3890    1.6220    2.5600 hc        1 MOL      0.069426
     60 H24        -1.6340   -0.2810    3.1600 hn        1 MOL      0.347756
     61 H25        -1.1770   -1.0800    4.6520 hn        1 MOL      0.347756
     62 N7         -0.8660    5.3740    2.9470 n         1 MOL     -0.340029
     63 C20        -0.6300    6.5830    2.1300 c3        1 MOL     -0.223001
     64 C21         0.6350    6.7130    1.2690 c         1 MOL      0.646600
     65 O12         1.6700    6.3530    1.8300 o         1 MOL     -0.515433
     66 H26        -0.6430    5.4940    3.9220 hn        1 MOL      0.294552
     67 H27        -0.5380    7.4190    2.8320 h1        1 MOL      0.104611
     68 H28        -1.5330    6.7390    1.5320 h1        1 MOL      0.104611
     69 N8          0.6130    7.2940    0.0380 n         1 MOL     -0.447414
     70 C22         1.6980    7.3670   -0.9160 c3        1 MOL     -0.328745
     71 C23         2.2060    6.0080   -1.4980 c         1 MOL      0.479008
     72 O13         3.3000    5.9620   -2.0780 o         1 MOL     -0.566065
     73 C24         1.3880    8.3220   -2.0230 c3        1 MOL      0.504587
     74 C25         0.2450    7.9200   -2.9320 c3        1 MOL     -0.186143
     75 O14         1.2300    9.5710   -1.3830 oh        1 MOL     -0.618984
     76 H29        -0.2660    7.6950   -0.2760 hn        1 MOL      0.255515
     77 H30         2.5690    7.8100   -0.4280 h1        1 MOL      0.176273
     78 H31         2.1700    8.4480   -2.7730 h1        1 MOL      0.027368
     79 H32         0.4120    9.4670   -0.8920 ho        1 MOL      0.370411
     80 H33         0.5680    7.2390   -3.7240 hc        1 MOL      0.030050
     81 H34        -0.4680    7.4620   -2.2510 hc        1 MOL      0.030050
     82 H35        -0.1450    8.8680   -3.3130 hc        1 MOL      0.030050
     83 N9          1.4820    4.8640   -1.4760 n         1 MOL     -0.032957
     84 C26         1.9210    3.6050   -2.0990 c3        1 MOL     -0.476423
     85 C27         1.5410    2.4010   -1.2510 c         1 MOL      0.482791
     86 O15         0.5040    2.4310   -0.6250 o         1 MOL     -0.475966
     87 C28         1.3410    3.4900   -3.5410 c3        1 MOL      0.393863
     88 C29        -0.2120    3.5990   -3.6330 c3        1 MOL     -0.038795
     89 C30         2.0270    4.5180   -4.4770 c3        1 MOL     -0.379454
     90 C31        -0.7680    3.6420   -5.0720 c3        1 MOL     -0.393339
     91 H36         0.5620    4.7860   -1.0850 hn        1 MOL      0.200892
     92 H37         3.0120    3.6150   -2.0600 h1        1 MOL      0.169271
     93 H38         1.6150    2.5070   -3.9170 hc        1 MOL     -0.058284
     94 H39        -0.4570    4.5440   -3.1300 hc        1 MOL      0.058011
     95 H40        -0.5240    2.7100   -3.0910 hc        1 MOL      0.058011
     96 H41         3.1110    4.3600   -4.3900 hc        1 MOL      0.088866
     97 H42         1.8760    4.2720   -5.5200 hc        1 MOL      0.088866
     98 H43         1.6850    5.4920   -4.1150 hc        1 MOL      0.088866
     99 H44        -1.8470    3.5310   -5.1050 hc        1 MOL      0.103835
    100 H45        -0.4720    4.5680   -5.5690 hc        1 MOL      0.103835
    101 H46        -0.3860    2.7520   -5.5640 hc        1 MOL      0.103835
    102 N10         2.4960    1.4810   -1.2140 n         1 MOL     -0.325668
    103 C32         2.4000    0.3990   -0.2360 c3        1 MOL      0.097519
    104 C33         3.7890   -0.1650    0.1750 c         1 MOL      0.585003
    105 O16         3.9070   -1.3380    0.5370 o         1 MOL     -0.521521
    106 C34         1.4280   -0.5840   -0.9280 c3        1 MOL     -0.048921
    107 C35         0.7340   -1.6010   -0.0270 c         1 MOL      0.810066
    108 O17         0.0540   -2.4860   -0.5540 o         1 MOL     -0.756792
    109 O18         0.7090   -1.4680    1.2170 o         1 MOL     -0.756792
    110 H47         3.2830    1.6230   -1.8190 hn        1 MOL      0.240580
    111 H48         1.9160    0.7400    0.6860 h1        1 MOL      0.027843
    112 H49         1.9670   -1.1190   -1.7210 hc        1 MOL      0.013242
    113 H50         0.6630   -0.0090   -1.4510 hc        1 MOL      0.013242
    114 N11         4.8650    0.6180    0.0800 n         1 MOL     -0.573272
    115 C36         6.1810    0.3030    0.5220 c3        1 MOL      0.397685
    116 C37         6.8180   -0.8710   -0.3160 c         1 MOL      0.238248
    117 O19         6.6720   -0.8230   -1.5230 o         1 MOL     -0.480769
    118 C38         6.8800    1.6250    0.4790 c3        1 MOL     -0.294363
    119 C39         8.3650    1.4050    0.9040 ca        1 MOL      0.107342
    120 C40         8.7410    1.6570    2.2190 ca        1 MOL     -0.166934
    121 C41         9.3430    1.0590   -0.0290 ca        1 MOL     -0.166934
    122 C42        10.0170    1.2740    2.6870 ca        1 MOL     -0.075930
    123 C43        10.6220    0.6870    0.4040 ca        1 MOL     -0.075930
    124 C44        11.0030    0.8610    1.7980 ca        1 MOL     -0.170672
    125 H51         4.6580    1.5600   -0.2200 hn        1 MOL      0.256940
    126 H52         6.2130   -0.0470    1.5620 h1        1 MOL     -0.024633
    127 H53         6.3800    2.3700    1.1040 hc        1 MOL      0.109845
    128 H54         6.8030    2.0130   -0.5320 hc        1 MOL      0.109845
    129 H55         8.0330    1.9530    2.9800 ha        1 MOL      0.117773
    130 H56         8.9530    0.8320   -1.0010 ha        1 MOL      0.117773
    131 H57        10.2820    1.4840    3.7090 ha        1 MOL      0.102524
    132 H58        11.3550    0.2620   -0.2600 ha        1 MOL      0.102524
    133 H59        11.9320    0.4960    2.2060 ha        1 MOL      0.118428
    134 N12         7.4280   -1.9390    0.3240 n         1 MOL      0.011693
    135 C45         7.9290   -3.1640   -0.3320 c3        1 MOL     -0.144800
    136 C46         7.0260   -3.9850   -1.2800 c         1 MOL      0.329747
    137 O20         7.5640   -4.6730   -2.1170 o         1 MOL     -0.473413
    138 C47         8.4980   -4.0350    0.7650 c3        1 MOL      0.152611
    139 C48         8.6930   -3.1020    1.9210 c3        1 MOL     -0.255742
    140 C49         7.5210   -2.0630    1.7970 c3        1 MOL      0.004335
    141 H60         8.7760   -2.9100   -0.9710 h1        1 MOL      0.098426
    142 H61         7.7380   -4.7400    1.0970 hc        1 MOL      0.008264
    143 H62         9.3960   -4.5910    0.5310 hc        1 MOL      0.008264
    144 H63         8.6580   -3.7130    2.8300 hc        1 MOL      0.075663
    145 H64         9.6610   -2.6900    1.6380 hc        1 MOL      0.075663
    146 H65         6.5370   -2.4150    2.1210 h1        1 MOL      0.044449
    147 H66         7.8210   -1.0820    2.1690 h1        1 MOL      0.044449
    148 N13         5.6930   -3.7860   -1.0930 n         1 MOL     -0.136422
    149 C50         4.7030   -4.3670   -2.0690 c3        1 MOL     -0.351164
    150 C51         4.7710   -3.6620   -3.4440 c         1 MOL      0.601679
    151 O21         4.8650   -4.3450   -4.4710 o         1 MOL     -0.558497
    152 C52         3.3030   -4.2960   -1.4440 c3        1 MOL      0.201147
    153 C53         3.0710   -5.5340   -0.5510 c3        1 MOL      0.235294
    154 C54         1.7160   -5.5000    0.0320 c         1 MOL      0.417416
    155 O22         1.5370   -5.0230    1.1810 o         1 MOL     -0.675969
    156 O23         0.7390   -5.7190   -0.6940 o         1 MOL     -0.675969
    157 H67         5.3530   -3.1170   -0.4260 hn        1 MOL      0.235925
    158 H68         4.9190   -5.3980   -2.3480 h1        1 MOL      0.156462
    159 H69         2.6010   -4.3380   -2.2700 hc        1 MOL     -0.036436
    160 H70         3.1420   -3.4060   -0.8460 hc        1 MOL     -0.036436
    161 H71         3.7490   -5.4460    0.2990 hc        1 MOL     -0.090565
    162 H72         3.4070   -6.4140   -1.0960 hc        1 MOL     -0.090565
    163 N14         4.7320   -2.3350   -3.4410 n         1 MOL     -0.244273
    164 C55         4.6130   -1.5810   -4.6710 c3        1 MOL     -0.316924
    165 H73         4.1680   -2.2100   -5.4420 h1        1 MOL      0.116706
    166 H74         3.9780   -0.7090   -4.5040 h1        1 MOL      0.116706
    167 H75         5.6010   -1.2540   -4.9950 h1        1 MOL      0.116706
    168 H76         4.8290   -1.8430   -2.5570 hn        1 MOL      0.257192
    169 Ca1        -1.0590   -4.3310    0.8300 Ca        1 MOL      1.725216
    170 O24        -0.1420   -3.0080    2.9050 oh        1 MOL     -0.787685
    171 H77         0.4890   -3.1580    3.6060 ho        1 MOL      0.387037
    172 H78         0.2470   -2.3160    2.3660 ho        1 MOL      0.387037
    173 O25        -1.2400   -5.7860    3.3490 oh        1 MOL     -0.787685
    174 H79        -0.8560   -5.3100    4.0870 ho        1 MOL      0.387037
    175 H80        -1.7970   -6.4530    3.7530 ho        1 MOL      0.387037
    176 O26        -1.7660   -7.0800    0.7640 oh        1 MOL     -0.787685
    177 H81        -1.5150   -7.8220    0.2240 ho        1 MOL      0.387037
    178 H82        -1.8870   -7.4430    1.6380 ho        1 MOL      0.387037
    179 O27        -2.2190   -4.8330   -1.6310 oh        1 MOL     -0.787685
    180 H83        -1.9130   -4.7500   -2.5360 ho        1 MOL      0.387037
    181 H84        -3.1710   -4.7430   -1.6970 ho        1 MOL      0.387037
@<TRIPOS>BOND
     1    1    2 1   
     2    1    4 1   
     3    1    5 1   
     4    1    6 1   
     5    2    3 2   
     6    2    7 1   
     7    7    8 1   
     8    7   15 1   
     9    8    9 1   
    10    8   11 1   
    11    8   16 1   
    12    9   10 2   
    13    9   19 1   
    14   11   12 1   
    15   11   17 1   
    16   11   18 1   
    17   12   13 1   
    18   12   14 1   
    19   19   20 1   
    20   19   24 1   
    21   20   21 1   
    22   20   23 1   
    23   20   25 1   
    24   21   22 2   
    25   21   29 1   
    26   23   26 1   
    27   23   27 1   
    28   23   28 1   
    29   29   30 1   
    30   29   37 1   
    31   30   31 1   
    32   30   33 1   
    33   30   38 1   
    34   31   32 2   
    35   31   41 1   
    36   33   34 1   
    37   33   39 1   
    38   33   40 1   
    39   34   35 1   
    40   34   36 1   
    41   41   42 1   
    42   41   45 1   
    43   42   43 1   
    44   42   46 1   
    45   42   47 1   
    46   43   44 2   
    47   43   48 1   
    48   48   49 1   
    49   48   56 1   
    50   49   50 1   
    51   49   52 1   
    52   49   57 1   
    53   50   51 2   
    54   50   62 1   
    55   52   53 1   
    56   52   58 1   
    57   52   59 1   
    58   53   54 1   
    59   53   55 2   
    60   54   60 1   
    61   54   61 1   
    62   62   63 1   
    63   62   66 1   
    64   63   64 1   
    65   63   67 1   
    66   63   68 1   
    67   64   65 2   
    68   64   69 1   
    69   69   70 1   
    70   69   76 1   
    71   70   71 1   
    72   70   73 1   
    73   70   77 1   
    74   71   72 2   
    75   71   83 1   
    76   73   74 1   
    77   73   75 1   
    78   73   78 1   
    79   74   80 1   
    80   74   81 1   
    81   74   82 1   
    82   75   79 1   
    83   83   84 1   
    84   83   91 1   
    85   84   85 1   
    86   84   87 1   
    87   84   92 1   
    88   85   86 2   
    89   85  102 1   
    90   87   88 1   
    91   87   89 1   
    92   87   93 1   
    93   88   90 1   
    94   88   94 1   
    95   88   95 1   
    96   89   96 1   
    97   89   97 1   
    98   89   98 1   
    99   90   99 1   
   100   90  100 1   
   101   90  101 1   
   102  102  103 1   
   103  102  110 1   
   104  103  104 1   
   105  103  106 1   
   106  103  111 1   
   107  104  105 2   
   108  104  114 1   
   109  106  107 1   
   110  106  112 1   
   111  106  113 1   
   112  107  108 1   
   113  107  109 1   
   114  114  115 1   
   115  114  125 1   
   116  115  116 1   
   117  115  118 1   
   118  115  126 1   
   119  116  117 2   
   120  116  134 1   
   121  118  119 1   
   122  118  127 1   
   123  118  128 1   
   124  119  120 ar  
   125  119  121 ar  
   126  120  122 ar  
   127  120  129 1   
   128  121  123 ar  
   129  121  130 1   
   130  122  124 ar  
   131  122  131 1   
   132  123  124 ar  
   133  123  132 1   
   134  124  133 1   
   135  134  135 1   
   136  134  140 1   
   137  135  136 1   
   138  135  138 1   
   139  135  141 1   
   140  136  137 2   
   141  136  148 1   
   142  138  139 1   
   143  138  142 1   
   144  138  143 1   
   145  139  140 1   
   146  139  144 1   
   147  139  145 1   
   148  140  146 1   
   149  140  147 1   
   150  148  149 1   
   151  148  157 1   
   152  149  150 1   
   153  149  152 1   
   154  149  158 1   
   155  150  151 2   
   156  150  163 1   
   157  152  153 1   
   158  152  159 1   
   159  152  160 1   
   160  153  154 1   
   161  153  161 1   
   162  153  162 1   
   163  154  155 1   
   164  154  156 1   
   165  163  164 1   
   166  163  168 1   
   167  164  165 1   
   168  164  166 1   
   169  164  167 1   
   170  170  171 1   
   171  170  172 1   
   172  173  174 1   
   173  173  175 1   
   174  176  177 1   
   175  176  178 1   
   176  179  180 1   
   177  179  181 1   
@<TRIPOS>SUBSTRUCTURE
     1 MOL         1 TEMP              0 ****  ****    0 ROOT
