@<TRIPOS>MOLECULE
MOL
  175   173     1     0     0
SMALL
resp


@<TRIPOS>ATOM
      1 C1         -7.2000    7.8780    1.9300 c3        1 MOL     -0.350083
      2 C2         -7.7850    7.0960    0.7960 c         1 MOL      0.641704
      3 O1         -7.6930    7.4660   -0.3860 o         1 MOL     -0.559760
      4 H1         -6.4740    7.2600    2.4590 hc        1 MOL      0.082096
      5 H2         -6.7030    8.7670    1.5400 hc        1 MOL      0.082096
      6 H3         -7.9930    8.1750    2.6150 hc        1 MOL      0.082096
      7 N1         -8.4520    5.9600    1.1770 n         1 MOL     -0.465179
      8 C3         -9.0370    5.0730    0.1350 c3        1 MOL      0.044602
      9 C4         -8.0150    4.3360   -0.6940 c         1 MOL      0.565179
     10 O2         -8.2780    3.9210   -1.8040 o         1 MOL     -0.512416
     11 C5         -9.9760    4.0630    0.8210 c3        1 MOL     -0.117098
     12 C6        -10.8170    3.2040   -0.1460 c         1 MOL      0.679680
     13 O3        -11.5870    3.8210   -0.9210 o         1 MOL     -0.719220
     14 O4        -10.6480    1.9650   -0.0800 o         1 MOL     -0.719220
     15 H4         -8.5510    5.7400    2.1530 hn        1 MOL      0.269715
     16 H5         -9.6430    5.7350   -0.4830 h1        1 MOL      0.068696
     17 H6        -10.6810    4.6230    1.4220 hc        1 MOL     -0.008891
     18 H7         -9.4100    3.4190    1.4940 hc        1 MOL     -0.008891
     19 N2         -6.8330    4.0440   -0.0800 n         1 MOL     -0.489717
     20 C7         -5.7770    3.2810   -0.7720 c3        1 MOL      0.312332
     21 C8         -5.0290    2.4590    0.2990 c         1 MOL      0.434299
     22 O5         -4.6140    3.0590    1.3120 o         1 MOL     -0.559741
     23 C9         -4.8090    4.2630   -1.4790 c3        1 MOL     -0.449167
     24 H8         -6.6290    4.3330    0.8610 hn        1 MOL      0.246158
     25 H9         -6.2250    2.6530   -1.5460 h1        1 MOL      0.027866
     26 H10        -4.1490    4.8420   -0.8320 hc        1 MOL      0.125438
     27 H11        -4.1260    3.6330   -2.0460 hc        1 MOL      0.125438
     28 H12        -5.4940    4.9050   -2.0330 hc        1 MOL      0.125438
     29 N3         -4.7290    1.1780    0.2240 n         1 MOL     -0.260764
     30 C10        -5.2850    0.2440   -0.7570 c3        1 MOL     -0.201267
     31 C11        -5.3470   -1.1930   -0.3440 c         1 MOL      0.624366
     32 O6         -4.7040   -1.6480    0.5430 o         1 MOL     -0.534557
     33 C12        -4.4720    0.3910   -2.0620 c3        1 MOL      0.005220
     34 C13        -3.0320    0.0590   -1.8370 c         1 MOL      0.694734
     35 O7         -2.1870    0.7980   -1.3320 o         1 MOL     -0.721170
     36 O8         -2.6270   -1.0760   -2.2270 o         1 MOL     -0.721170
     37 H13        -4.1310    0.8320    0.9670 hn        1 MOL      0.239353
     38 H14        -6.2620    0.6570   -1.0030 h1        1 MOL      0.103014
     39 H15        -4.3700    1.3950   -2.4900 hc        1 MOL     -0.007759
     40 H16        -4.8630   -0.2300   -2.8640 hc        1 MOL     -0.007759
     41 N4         -6.2610   -1.9230   -0.9700 n         1 MOL     -0.482725
     42 C14        -6.6820   -3.2980   -0.5570 c3        1 MOL      0.161129
     43 C15        -6.6150   -4.3770   -1.6850 c         1 MOL      0.494154
     44 O9         -7.6390   -4.7520   -2.2480 o         1 MOL     -0.548392
     45 H17        -6.7270   -1.4850   -1.7530 hn        1 MOL      0.342488
     46 H18        -7.7320   -3.2590   -0.2990 h1        1 MOL      0.017601
     47 H19        -6.1370   -3.7500    0.2730 h1        1 MOL      0.017601
     48 N5         -5.4380   -4.8400   -2.1090 n         1 MOL     -0.481304
     49 C16        -4.1130   -4.6060   -1.5360 c3        1 MOL      0.144705
     50 C17        -3.9230   -5.2690   -0.1750 c         1 MOL      0.533157
     51 O10        -3.9790   -6.4820   -0.1020 o         1 MOL     -0.569563
     52 C18        -2.9670   -4.9050   -2.5170 c3        1 MOL     -0.107239
     53 C19        -1.5390   -4.5610   -1.9900 c         1 MOL      0.608316
     54 N6         -0.5600   -4.9810   -2.7610 n         1 MOL     -0.665057
     55 O11        -1.3930   -3.7310   -1.0960 o         1 MOL     -0.717608
     56 H20        -5.4580   -5.4860   -2.8870 hn        1 MOL      0.308927
     57 H21        -4.0020   -3.5510   -1.2750 h1        1 MOL     -0.053106
     58 H22        -3.1930   -4.5150   -3.5040 hc        1 MOL      0.038206
     59 H23        -3.0250   -5.9940   -2.6180 hc        1 MOL      0.038206
     60 H24        -0.6620   -5.5230   -3.6040 hn        1 MOL      0.344068
     61 H25         0.3490   -4.7180   -2.4000 hn        1 MOL      0.344068
     62 N7         -3.6070   -4.4720    0.8740 n         1 MOL     -0.133159
     63 C20        -3.4140   -4.8200    2.3000 c3        1 MOL     -0.374075
     64 C21        -1.9780   -5.1880    2.7270 c         1 MOL      0.666246
     65 O12        -1.6850   -5.3070    3.9200 o         1 MOL     -0.586037
     66 H26        -3.6780   -3.4770    0.7280 hn        1 MOL      0.262835
     67 H27        -4.0360   -5.7000    2.5010 h1        1 MOL      0.130915
     68 H28        -3.7470   -3.9460    2.8510 h1        1 MOL      0.130915
     69 N8         -1.0290   -5.1690    1.7890 n         1 MOL     -0.317162
     70 C22         0.4070   -5.0550    2.0680 c3        1 MOL     -0.173608
     71 C23         1.0320   -3.6400    1.9100 c         1 MOL      0.581425
     72 O13         0.6560   -2.8100    1.1150 o         1 MOL     -0.522196
     73 C24         1.1520   -6.0270    1.1420 c3        1 MOL      0.312169
     74 C25         0.7940   -7.4200    1.4470 c3        1 MOL     -0.490756
     75 O14         0.7450   -5.9540   -0.1790 oh        1 MOL     -0.544014
     76 H29        -1.2730   -5.1100    0.8040 hn        1 MOL      0.263987
     77 H30         0.6070   -5.3880    3.0880 h1        1 MOL      0.107747
     78 H31         2.2130   -5.8110    1.1140 h1        1 MOL      0.049910
     79 H32         1.2510   -5.1980   -0.4960 ho        1 MOL      0.365086
     80 H33         0.7530   -7.6040    2.5200 hc        1 MOL      0.116947
     81 H34        -0.1340   -7.7510    0.9610 hc        1 MOL      0.116947
     82 H35         1.6670   -7.9720    1.0770 hc        1 MOL      0.116947
     83 N9          2.0270   -3.3200    2.7440 n         1 MOL     -0.398851
     84 C26         2.9790   -2.1840    2.5620 c3        1 MOL     -0.028209
     85 C27         3.9810   -2.6320    1.4990 c         1 MOL      0.283257
     86 O15         4.8280   -3.4210    1.7540 o         1 MOL     -0.541874
     87 C28         3.6390   -1.7910    3.9040 c3        1 MOL      0.310947
     88 C29         4.6230   -0.6000    3.6550 c3        1 MOL      0.002355
     89 C30         2.5780   -1.4130    4.9130 c3        1 MOL     -0.271974
     90 C31         5.4410   -0.3010    4.9040 c3        1 MOL     -0.130319
     91 H36         2.2550   -3.9410    3.5070 hn        1 MOL      0.241936
     92 H37         2.4120   -1.3470    2.1640 h1        1 MOL      0.066323
     93 H38         4.2600   -2.6180    4.2660 hc        1 MOL     -0.029002
     94 H39         4.0760    0.3240    3.4810 hc        1 MOL      0.002625
     95 H40         5.2510   -0.8490    2.7910 hc        1 MOL      0.002625
     96 H41         2.0860   -0.4820    4.6430 hc        1 MOL      0.058516
     97 H42         1.8390   -2.2120    5.0520 hc        1 MOL      0.058516
     98 H43         3.0810   -1.3140    5.8650 hc        1 MOL      0.058516
     99 H44         6.0270    0.5900    4.7080 hc        1 MOL      0.020333
    100 H45         4.8060    0.0360    5.7280 hc        1 MOL      0.020333
    101 H46         6.0750   -1.1080    5.2580 hc        1 MOL      0.020333
    102 N10         3.8310   -2.1780    0.2290 n         1 MOL      0.041193
    103 C32         4.5850   -2.6310   -0.9570 c3        1 MOL      0.038241
    104 C33         5.7710   -1.7270   -1.2830 c         1 MOL      0.365255
    105 O16         6.5110   -2.0240   -2.2850 o         1 MOL     -0.536199
    106 C34         3.6320   -2.6080   -2.2290 c3        1 MOL     -0.232309
    107 C35         2.2270   -3.0950   -2.0860 c         1 MOL      0.795301
    108 O17         2.0640   -4.1850   -1.4570 o         1 MOL     -0.716011
    109 O18         1.2400   -2.4940   -2.5440 o         1 MOL     -0.716011
    110 H47         3.1210   -1.4910    0.0440 hn        1 MOL     -0.031248
    111 H48         4.9220   -3.6650   -0.8610 h1        1 MOL      0.092349
    112 H49         4.0900   -3.2010   -3.0110 hc        1 MOL      0.068155
    113 H50         3.5630   -1.6240   -2.6880 hc        1 MOL      0.068155
    114 N11         5.9650   -0.5920   -0.5720 n         1 MOL     -0.260434
    115 C36         6.7870    0.5600   -1.0790 c3        1 MOL      0.229592
    116 C37         6.2640    1.8980   -0.4490 c         1 MOL      0.385261
    117 O19         5.8680    1.8960    0.7090 o         1 MOL     -0.469963
    118 C38         8.2100    0.2880   -0.7080 c3        1 MOL     -0.381443
    119 C39         9.2420    1.2790   -1.2860 ca        1 MOL      0.150448
    120 C40         9.3660    2.5270   -0.6060 ca        1 MOL     -0.152919
    121 C41         9.8410    1.0120   -2.4660 ca        1 MOL     -0.152919
    122 C42        10.3570    3.4260   -1.1170 ca        1 MOL     -0.128901
    123 C43        10.8570    1.8680   -2.9250 ca        1 MOL     -0.128901
    124 C44        11.1410    3.0940   -2.2510 ca        1 MOL     -0.139305
    125 H51         5.5230   -0.5080    0.3300 hn        1 MOL      0.188670
    126 H52         6.6130    0.6500   -2.1530 h1        1 MOL      0.044547
    127 H53         8.5010   -0.6990   -1.0660 hc        1 MOL      0.134883
    128 H54         8.1900    0.2880    0.3790 hc        1 MOL      0.134883
    129 H55         8.7030    2.7100    0.2310 ha        1 MOL      0.130608
    130 H56         9.6180    0.0550   -2.9100 ha        1 MOL      0.130608
    131 H57        10.5350    4.3610   -0.6110 ha        1 MOL      0.116360
    132 H58        11.2780    1.6100   -3.8820 ha        1 MOL      0.116360
    133 H59        11.8560    3.7720   -2.7070 ha        1 MOL      0.118627
    134 N12         6.2540    3.0010   -1.2860 n         1 MOL     -0.403180
    135 C45         6.2510    4.3840   -0.8010 c3        1 MOL      0.298966
    136 C46         4.9670    4.8490   -0.1240 c         1 MOL      0.193668
    137 O20         4.8630    6.0540    0.1590 o         1 MOL     -0.486698
    138 C47         6.5040    5.3630   -1.9960 c3        1 MOL     -0.348210
    139 C48         7.2850    4.4370   -2.9260 c3        1 MOL      0.240559
    140 C49         6.8490    3.0350   -2.7130 c3        1 MOL     -0.056783
    141 H60         7.0780    4.4810   -0.0960 h1        1 MOL      0.039224
    142 H61         5.5750    5.6040   -2.5130 hc        1 MOL      0.126963
    143 H62         7.1500    6.2060   -1.7780 hc        1 MOL      0.126963
    144 H63         7.1320    4.6590   -3.9740 hc        1 MOL     -0.041932
    145 H64         8.3640    4.5260   -2.7640 hc        1 MOL     -0.041932
    146 H65         6.0260    2.8490   -3.4000 h1        1 MOL      0.074375
    147 H66         7.6430    2.3140   -2.9110 h1        1 MOL      0.074375
    148 N13         4.0210    3.9100    0.1960 n         1 MOL     -0.007546
    149 C50         2.7790    4.1430    0.8060 c3        1 MOL     -0.387596
    150 C51         2.7590    4.5270    2.3170 c         1 MOL      0.529242
    151 O21         1.9240    5.3350    2.7720 o         1 MOL     -0.530660
    152 C52         1.8210    3.0180    0.4940 c3        1 MOL      0.049928
    153 C53         2.1730    1.8600    1.4420 c3        1 MOL     -0.168789
    154 C54         1.3790    0.6390    0.8870 c         1 MOL      0.683371
    155 O22         1.8830   -0.0980    0.0060 o         1 MOL     -0.676431
    156 O23         0.2240    0.4430    1.2740 o         1 MOL     -0.676431
    157 H67         4.2570    2.9500    0.0050 hn        1 MOL      0.170557
    158 H68         2.3730    5.0210    0.3030 h1        1 MOL      0.169348
    159 H69         1.9740    2.7860   -0.5660 hc        1 MOL      0.049209
    160 H70         0.7580    3.2540    0.5440 hc        1 MOL      0.049209
    161 H71         1.8300    1.9740    2.4710 hc        1 MOL      0.054252
    162 H72         3.2550    1.7400    1.4920 hc        1 MOL      0.054252
    163 N14         3.8550    4.1980    2.9790 n         1 MOL     -0.122181
    164 C55         4.0630    4.5330    4.3930 c3        1 MOL     -0.340131
    165 H73         4.8780    3.9290    4.7930 h1        1 MOL      0.122452
    166 H74         4.3160    5.5890    4.4840 h1        1 MOL      0.122452
    167 H75         3.1500    4.3290    4.9530 h1        1 MOL      0.122452
    168 H76         4.5590    3.6080    2.5480 hn        1 MOL      0.205167
    169 Ca1        -0.3600   -1.3540   -0.8780 Ca        1 MOL      1.795246
    170 O24         0.3700    0.2600   -2.9770 oh        1 MOL     -0.936166
    171 H77         0.1380    1.1850   -2.9620 ho        1 MOL      0.436223
    172 H78         0.5750    0.0750   -3.8990 ho        1 MOL      0.436223
    173 O25        -2.2910   -1.0930    0.9440 oh        1 MOL     -0.936166
    174 H79        -3.1950   -1.3940    0.9510 ho        1 MOL      0.436223
    175 H80        -2.3310   -0.1890    1.2610 ho        1 MOL      0.436223
@<TRIPOS>BOND
     1    1    2 1   
     2    1    4 1   
     3    1    5 1   
     4    1    6 1   
     5    2    3 2   
     6    2    7 1   
     7    7    8 1   
     8    7   15 1   
     9    8    9 1   
    10    8   11 1   
    11    8   16 1   
    12    9   10 2   
    13    9   19 1   
    14   11   12 1   
    15   11   17 1   
    16   11   18 1   
    17   12   13 1   
    18   12   14 1   
    19   19   20 1   
    20   19   24 1   
    21   20   21 1   
    22   20   23 1   
    23   20   25 1   
    24   21   22 2   
    25   21   29 1   
    26   23   26 1   
    27   23   27 1   
    28   23   28 1   
    29   29   30 1   
    30   29   37 1   
    31   30   31 1   
    32   30   33 1   
    33   30   38 1   
    34   31   32 2   
    35   31   41 1   
    36   33   34 1   
    37   33   39 1   
    38   33   40 1   
    39   34   35 1   
    40   34   36 1   
    41   41   42 1   
    42   41   45 1   
    43   42   43 1   
    44   42   46 1   
    45   42   47 1   
    46   43   44 2   
    47   43   48 1   
    48   48   49 1   
    49   48   56 1   
    50   49   50 1   
    51   49   52 1   
    52   49   57 1   
    53   50   51 2   
    54   50   62 1   
    55   52   53 1   
    56   52   58 1   
    57   52   59 1   
    58   53   54 1   
    59   53   55 2   
    60   54   60 1   
    61   54   61 1   
    62   62   63 1   
    63   62   66 1   
    64   63   64 1   
    65   63   67 1   
    66   63   68 1   
    67   64   65 2   
    68   64   69 1   
    69   69   70 1   
    70   69   76 1   
    71   70   71 1   
    72   70   73 1   
    73   70   77 1   
    74   71   72 2   
    75   71   83 1   
    76   73   74 1   
    77   73   75 1   
    78   73   78 1   
    79   74   80 1   
    80   74   81 1   
    81   74   82 1   
    82   75   79 1   
    83   83   84 1   
    84   83   91 1   
    85   84   85 1   
    86   84   87 1   
    87   84   92 1   
    88   85   86 2   
    89   85  102 1   
    90   87   88 1   
    91   87   89 1   
    92   87   93 1   
    93   88   90 1   
    94   88   94 1   
    95   88   95 1   
    96   89   96 1   
    97   89   97 1   
    98   89   98 1   
    99   90   99 1   
   100   90  100 1   
   101   90  101 1   
   102  102  103 1   
   103  102  110 1   
   104  103  104 1   
   105  103  106 1   
   106  103  111 1   
   107  104  105 2   
   108  104  114 1   
   109  106  107 1   
   110  106  112 1   
   111  106  113 1   
   112  107  108 1   
   113  107  109 1   
   114  114  115 1   
   115  114  125 1   
   116  115  116 1   
   117  115  118 1   
   118  115  126 1   
   119  116  117 2   
   120  116  134 1   
   121  118  119 1   
   122  118  127 1   
   123  118  128 1   
   124  119  120 ar  
   125  119  121 ar  
   126  120  122 ar  
   127  120  129 1   
   128  121  123 ar  
   129  121  130 1   
   130  122  124 ar  
   131  122  131 1   
   132  123  124 ar  
   133  123  132 1   
   134  124  133 1   
   135  134  135 1   
   136  134  140 1   
   137  135  136 1   
   138  135  138 1   
   139  135  141 1   
   140  136  137 2   
   141  136  148 1   
   142  138  139 1   
   143  138  142 1   
   144  138  143 1   
   145  139  140 1   
   146  139  144 1   
   147  139  145 1   
   148  140  146 1   
   149  140  147 1   
   150  148  149 1   
   151  148  157 1   
   152  149  150 1   
   153  149  152 1   
   154  149  158 1   
   155  150  151 2   
   156  150  163 1   
   157  152  153 1   
   158  152  159 1   
   159  152  160 1   
   160  153  154 1   
   161  153  161 1   
   162  153  162 1   
   163  154  155 1   
   164  154  156 1   
   165  163  164 1   
   166  163  168 1   
   167  164  165 1   
   168  164  166 1   
   169  164  167 1   
   170  170  171 1   
   171  170  172 1   
   172  173  174 1   
   173  173  175 1   
@<TRIPOS>SUBSTRUCTURE
     1 MOL         1 TEMP              0 ****  ****    0 ROOT
