@<TRIPOS>MOLECULE
MOL
  175   173     1     0     0
SMALL
resp


@<TRIPOS>ATOM
      1 C1         -6.2940    7.8100    2.0030 c3        1 MOL     -0.422506
      2 C2         -6.9940    7.1190    0.8080 c         1 MOL      0.659732
      3 O1         -6.7520    7.5340   -0.3150 o         1 MOL     -0.567017
      4 H1         -5.2450    7.9800    1.7600 hc        1 MOL      0.100774
      5 H2         -6.7790    8.7650    2.2060 hc        1 MOL      0.100774
      6 H3         -6.3640    7.1730    2.8840 hc        1 MOL      0.100774
      7 N1         -7.9290    6.1640    1.0540 n         1 MOL     -0.560668
      8 C3         -8.6870    5.4780    0.0650 c3        1 MOL      0.487913
      9 C4         -7.8580    4.5610   -0.7980 c         1 MOL      0.477243
     10 O2         -8.2150    4.3410   -1.9080 o         1 MOL     -0.506054
     11 C5         -9.8720    4.7420    0.7640 c3        1 MOL     -0.424442
     12 C6        -11.0040    4.4280   -0.1640 c         1 MOL      0.813827
     13 O3        -11.2530    5.0410   -1.2170 o         1 MOL     -0.751611
     14 O4        -11.7560    3.4790    0.1410 o         1 MOL     -0.751611
     15 H4         -8.0440    6.0290    2.0440 hn        1 MOL      0.267996
     16 H5         -9.1040    6.2940   -0.5260 h1        1 MOL     -0.038049
     17 H6        -10.2230    5.3700    1.5830 hc        1 MOL      0.047384
     18 H7         -9.3870    3.8670    1.1790 hc        1 MOL      0.047384
     19 N2         -6.7230    4.0590   -0.2360 n         1 MOL     -0.513855
     20 C7         -5.7600    3.2340   -0.9300 c3        1 MOL      0.212875
     21 C8         -4.9980    2.3810    0.0800 c         1 MOL      0.514671
     22 O5         -4.5970    2.8970    1.1280 o         1 MOL     -0.560471
     23 C9         -4.7160    4.0000   -1.7360 c3        1 MOL     -0.205004
     24 H8         -6.7090    4.1180    0.7690 hn        1 MOL      0.238219
     25 H9         -6.2230    2.5740   -1.6630 h1        1 MOL      0.043565
     26 H10        -5.2250    4.3120   -2.6530 hc        1 MOL      0.063507
     27 H11        -4.3960    4.9160   -1.2460 hc        1 MOL      0.063507
     28 H12        -3.8540    3.3950   -1.9890 hc        1 MOL      0.063507
     29 N3         -4.8300    1.0870   -0.1050 n         1 MOL     -0.344158
     30 C10        -5.5290    0.2530   -1.0910 c3        1 MOL     -0.075326
     31 C11        -5.8310   -1.0500   -0.3700 c         1 MOL      0.477731
     32 O6         -5.0760   -1.4240    0.5500 o         1 MOL     -0.469686
     33 C12        -4.6620    0.0180   -2.3670 c3        1 MOL     -0.196785
     34 C13        -3.2490   -0.3790   -2.0930 c         1 MOL      0.714154
     35 O7         -2.8810   -1.5640   -2.1600 o         1 MOL     -0.705325
     36 O8         -2.3530    0.3930   -1.6830 o         1 MOL     -0.705325
     37 H13        -4.3980    0.5960    0.6670 hn        1 MOL      0.246415
     38 H14        -6.4970    0.5980   -1.4520 h1        1 MOL      0.078175
     39 H15        -4.6360    0.9580   -2.9040 hc        1 MOL      0.054312
     40 H16        -5.0430   -0.7940   -2.9790 hc        1 MOL      0.054312
     41 N4         -6.9340   -1.7720   -0.8530 n         1 MOL     -0.437552
     42 C14        -7.2710   -3.1030   -0.2840 c3        1 MOL      0.034488
     43 C15        -7.0150   -4.1930   -1.3820 c         1 MOL      0.621340
     44 O9         -7.9570   -4.5480   -2.0470 o         1 MOL     -0.595934
     45 H17        -7.4180   -1.3670   -1.6350 hn        1 MOL      0.333460
     46 H18        -8.3440   -3.0760   -0.0900 h1        1 MOL      0.054315
     47 H19        -6.6750   -3.4630    0.5550 h1        1 MOL      0.054315
     48 N5         -5.9020   -4.8270   -1.5910 n         1 MOL     -0.565734
     49 C16        -4.5860   -4.5960   -0.9610 c3        1 MOL      0.116731
     50 C17        -4.3700   -5.2050    0.4300 c         1 MOL      0.592087
     51 O10        -4.5500   -6.4290    0.6410 o         1 MOL     -0.579109
     52 C18        -3.5120   -5.1550   -1.9400 c3        1 MOL     -0.224424
     53 C19        -2.1060   -4.6500   -1.6690 c         1 MOL      0.627175
     54 N6         -1.2090   -5.0030   -2.5900 n         1 MOL     -0.695265
     55 O11        -1.7570   -3.8300   -0.8960 o         1 MOL     -0.624010
     56 H20        -5.8690   -5.2900   -2.4900 hn        1 MOL      0.333479
     57 H21        -4.4030   -3.5280   -0.8630 h1        1 MOL      0.067615
     58 H22        -3.8520   -4.7980   -2.9110 hc        1 MOL      0.074577
     59 H23        -3.5040   -6.2480   -1.9410 hc        1 MOL      0.074577
     60 H24        -1.5800   -5.4610   -3.4120 hn        1 MOL      0.325019
     61 H25        -0.3460   -4.5140   -2.4230 hn        1 MOL      0.325019
     62 N7         -3.9210   -4.3230    1.3300 n         1 MOL     -0.270584
     63 C20        -3.5750   -4.5610    2.7300 c3        1 MOL     -0.225246
     64 C21        -2.0310   -4.7010    3.0530 c         1 MOL      0.446349
     65 O12        -1.7130   -5.0710    4.1830 o         1 MOL     -0.576549
     66 H26        -3.7950   -3.3750    0.9930 hn        1 MOL      0.210418
     67 H27        -4.1120   -5.4200    3.1140 h1        1 MOL      0.117477
     68 H28        -3.9080   -3.6960    3.2910 h1        1 MOL      0.117477
     69 N8         -1.1880   -4.5240    2.1030 n         1 MOL      0.041537
     70 C22         0.3060   -4.6910    2.2870 c3        1 MOL     -0.215664
     71 C23         1.0340   -3.4790    1.8070 c         1 MOL      0.250358
     72 O13         0.4800   -2.6570    1.1300 o         1 MOL     -0.451354
     73 C24         0.8550   -5.8770    1.4580 c3        1 MOL      0.348770
     74 C25         0.1290   -7.1360    1.8780 c3        1 MOL     -0.345255
     75 O14         0.5390   -5.7460    0.0710 oh        1 MOL     -0.682237
     76 H29        -1.5710   -4.1070    1.2630 hn        1 MOL      0.138826
     77 H30         0.3870   -4.8970    3.3570 h1        1 MOL      0.102477
     78 H31         1.8960   -6.1800    1.5400 h1        1 MOL      0.020613
     79 H32         1.2050   -5.3460   -0.4950 ho        1 MOL      0.494918
     80 H33         0.2880   -7.3420    2.9380 hc        1 MOL      0.086078
     81 H34        -0.9430   -7.0510    1.7110 hc        1 MOL      0.086078
     82 H35         0.4910   -8.0270    1.3610 hc        1 MOL      0.086078
     83 N9          2.2460   -3.3070    2.3600 n         1 MOL     -0.017767
     84 C26         3.1690   -2.1660    2.1510 c3        1 MOL      0.168500
     85 C27         4.1000   -2.4400    1.0750 c         1 MOL      0.055839
     86 O15         5.0890   -3.1570    1.2530 o         1 MOL     -0.510288
     87 C28         3.8710   -1.8450    3.4870 c3        1 MOL      0.026759
     88 C29         4.7330   -0.5330    3.1720 c3        1 MOL      0.021252
     89 C30         2.9380   -1.6280    4.7030 c3        1 MOL     -0.126635
     90 C31         5.4940   -0.0660    4.3550 c3        1 MOL     -0.517082
     91 H36         2.6220   -4.0350    2.9580 hn        1 MOL      0.162523
     92 H37         2.5060   -1.3130    1.9970 h1        1 MOL     -0.004270
     93 H38         4.5500   -2.6640    3.7180 hc        1 MOL      0.009555
     94 H39         3.9720    0.1100    2.7350 hc        1 MOL      0.118406
     95 H40         5.5010   -0.7160    2.4130 hc        1 MOL      0.118406
     96 H41         2.3050   -2.4990    4.8360 hc        1 MOL      0.026929
     97 H42         3.4080   -1.4670    5.6800 hc        1 MOL      0.026929
     98 H43         2.1610   -0.8810    4.5390 hc        1 MOL      0.026929
     99 H44         6.1120   -0.9140    4.6700 hc        1 MOL      0.126295
    100 H45         6.2950    0.6060    4.0450 hc        1 MOL      0.126295
    101 H46         4.8460    0.4060    5.0940 hc        1 MOL      0.126295
    102 N10         3.7400   -2.0100   -0.1150 n         1 MOL     -0.070455
    103 C32         4.3760   -2.4390   -1.4180 c3        1 MOL      0.646935
    104 C33         5.4730   -1.5420   -2.0120 c         1 MOL      0.366622
    105 O16         5.5980   -1.2610   -3.2420 o         1 MOL     -0.521201
    106 C34         3.2960   -2.6790   -2.4560 c3        1 MOL     -0.474124
    107 C35         2.1330   -3.5270   -1.9840 c         1 MOL      0.923656
    108 O17         2.4200   -4.6200   -1.3980 o         1 MOL     -0.761677
    109 O18         0.8870   -3.2090   -2.0790 o         1 MOL     -0.761677
    110 H47         2.9150   -1.4360   -0.1120 hn        1 MOL     -0.068146
    111 H48         4.8670   -3.4090   -1.3140 h1        1 MOL     -0.036291
    112 H49         3.7990   -3.2170   -3.2680 hc        1 MOL      0.067898
    113 H50         2.8580   -1.7440   -2.7940 hc        1 MOL      0.067898
    114 N11         6.1940   -0.8780   -1.0820 n         1 MOL     -0.668246
    115 C36         7.0480    0.2440   -1.3950 c3        1 MOL      0.768023
    116 C37         6.7620    1.4840   -0.4930 c         1 MOL      0.277973
    117 O19         6.6060    1.2380    0.6910 o         1 MOL     -0.550101
    118 C38         8.4950   -0.1940   -1.4410 c3        1 MOL     -0.294743
    119 C39         9.4840    0.8900   -1.5560 ca        1 MOL      0.104999
    120 C40        10.0480    1.4620   -0.4040 ca        1 MOL     -0.166011
    121 C41        10.0360    1.3780   -2.7980 ca        1 MOL     -0.166011
    122 C42        11.1040    2.3190   -0.4720 ca        1 MOL     -0.089014
    123 C43        11.0580    2.4010   -2.8890 ca        1 MOL     -0.089014
    124 C44        11.6240    2.8390   -1.6920 ca        1 MOL     -0.172291
    125 H51         6.0110   -0.9970   -0.1030 hn        1 MOL      0.225425
    126 H52         6.7700    0.6050   -2.3910 h1        1 MOL     -0.139708
    127 H53         8.6260   -0.7880   -2.3440 hc        1 MOL      0.092812
    128 H54         8.8080   -0.8130   -0.6010 hc        1 MOL      0.092812
    129 H55         9.6560    1.1550    0.5540 ha        1 MOL      0.109078
    130 H56         9.7240    0.9510   -3.7340 ha        1 MOL      0.109078
    131 H57        11.5160    2.6600    0.4710 ha        1 MOL      0.103636
    132 H58        11.4260    2.7220   -3.8580 ha        1 MOL      0.103636
    133 H59        12.3410    3.6400   -1.7120 ha        1 MOL      0.120616
    134 N12         6.7750    2.7120   -1.0070 n         1 MOL      0.001762
    135 C45         6.9450    3.9210   -0.1990 c3        1 MOL     -0.273137
    136 C46         5.6220    4.4370    0.3210 c         1 MOL      0.738938
    137 O20         5.5540    5.6490    0.5260 o         1 MOL     -0.584974
    138 C47         7.5080    4.9030   -1.2570 c3        1 MOL      0.092164
    139 C48         6.8030    4.5720   -2.5530 c3        1 MOL     -0.113108
    140 C49         6.7410    3.0490   -2.4310 c3        1 MOL      0.075231
    141 H60         7.6650    3.8270    0.6140 h1        1 MOL      0.135000
    142 H61         7.4610    5.9670   -1.0690 hc        1 MOL      0.002563
    143 H62         8.5670    4.6410   -1.3400 hc        1 MOL      0.002563
    144 H63         5.7940    4.9880   -2.5510 hc        1 MOL      0.048982
    145 H64         7.3630    4.7970   -3.4560 hc        1 MOL      0.048982
    146 H65         5.8110    2.7230   -2.8840 h1        1 MOL      0.017298
    147 H66         7.5330    2.6000   -3.0270 h1        1 MOL      0.017298
    148 N13         4.5650    3.5980    0.6050 n         1 MOL     -0.483222
    149 C50         3.2070    4.1030    0.9160 c3        1 MOL     -0.090699
    150 C51         2.9090    4.5130    2.3970 c         1 MOL      0.401635
    151 O21         1.7870    4.4850    2.8800 o         1 MOL     -0.461925
    152 C52         2.2360    3.0720    0.4130 c3        1 MOL      0.154895
    153 C53         2.3280    1.6500    0.9930 c3        1 MOL     -0.119604
    154 C54         1.3400    0.5820    0.3690 c         1 MOL      0.719822
    155 O22         1.6700   -0.1850   -0.5210 o         1 MOL     -0.693620
    156 O23         0.1460    0.6130    0.5730 o         1 MOL     -0.693620
    157 H67         4.6290    2.6090    0.4100 hn        1 MOL      0.172442
    158 H68         3.1190    4.9810    0.2670 h1        1 MOL      0.107108
    159 H69         2.3920    3.0320   -0.6680 hc        1 MOL      0.007705
    160 H70         1.2150    3.3720    0.6100 hc        1 MOL      0.007705
    161 H71         2.2560    1.6110    2.0790 hc        1 MOL      0.028201
    162 H72         3.3540    1.3210    0.8040 hc        1 MOL      0.028201
    163 N14         3.9910    4.7970    3.1730 n         1 MOL     -0.229451
    164 C55         4.0140    5.0070    4.6050 c3        1 MOL     -0.095468
    165 H73         4.7210    5.8010    4.8440 h1        1 MOL      0.066353
    166 H74         3.0190    5.2920    4.9470 h1        1 MOL      0.066353
    167 H75         4.3210    4.0860    5.1030 h1        1 MOL      0.066353
    168 H76         4.8650    4.7970    2.6690 hn        1 MOL      0.208383
    169 Ca1        -0.5820   -1.5070   -0.9030 Ca        1 MOL      1.758012
    170 O24         0.1220   -0.3080   -3.2090 oh        1 MOL     -0.880858
    171 H77        -0.2750   -0.1830   -4.0690 ho        1 MOL      0.421437
    172 H78         1.0410   -0.0890   -3.3280 ho        1 MOL      0.421437
    173 O25        -2.4160   -1.3510    0.9910 oh        1 MOL     -0.880858
    174 H79        -2.1710   -0.7040    1.6610 ho        1 MOL      0.421437
    175 H80        -3.3640   -1.2460    0.8950 ho        1 MOL      0.421437
@<TRIPOS>BOND
     1    1    2 1   
     2    1    4 1   
     3    1    5 1   
     4    1    6 1   
     5    2    3 2   
     6    2    7 1   
     7    7    8 1   
     8    7   15 1   
     9    8    9 1   
    10    8   11 1   
    11    8   16 1   
    12    9   10 2   
    13    9   19 1   
    14   11   12 1   
    15   11   17 1   
    16   11   18 1   
    17   12   13 1   
    18   12   14 1   
    19   19   20 1   
    20   19   24 1   
    21   20   21 1   
    22   20   23 1   
    23   20   25 1   
    24   21   22 2   
    25   21   29 1   
    26   23   26 1   
    27   23   27 1   
    28   23   28 1   
    29   29   30 1   
    30   29   37 1   
    31   30   31 1   
    32   30   33 1   
    33   30   38 1   
    34   31   32 2   
    35   31   41 1   
    36   33   34 1   
    37   33   39 1   
    38   33   40 1   
    39   34   35 1   
    40   34   36 1   
    41   41   42 1   
    42   41   45 1   
    43   42   43 1   
    44   42   46 1   
    45   42   47 1   
    46   43   44 2   
    47   43   48 1   
    48   48   49 1   
    49   48   56 1   
    50   49   50 1   
    51   49   52 1   
    52   49   57 1   
    53   50   51 2   
    54   50   62 1   
    55   52   53 1   
    56   52   58 1   
    57   52   59 1   
    58   53   54 1   
    59   53   55 2   
    60   54   60 1   
    61   54   61 1   
    62   62   63 1   
    63   62   66 1   
    64   63   64 1   
    65   63   67 1   
    66   63   68 1   
    67   64   65 2   
    68   64   69 1   
    69   69   70 1   
    70   69   76 1   
    71   70   71 1   
    72   70   73 1   
    73   70   77 1   
    74   71   72 2   
    75   71   83 1   
    76   73   74 1   
    77   73   75 1   
    78   73   78 1   
    79   74   80 1   
    80   74   81 1   
    81   74   82 1   
    82   75   79 1   
    83   83   84 1   
    84   83   91 1   
    85   84   85 1   
    86   84   87 1   
    87   84   92 1   
    88   85   86 2   
    89   85  102 1   
    90   87   88 1   
    91   87   89 1   
    92   87   93 1   
    93   88   90 1   
    94   88   94 1   
    95   88   95 1   
    96   89   96 1   
    97   89   97 1   
    98   89   98 1   
    99   90   99 1   
   100   90  100 1   
   101   90  101 1   
   102  102  103 1   
   103  102  110 1   
   104  103  104 1   
   105  103  106 1   
   106  103  111 1   
   107  104  105 2   
   108  104  114 1   
   109  106  107 1   
   110  106  112 1   
   111  106  113 1   
   112  107  108 1   
   113  107  109 1   
   114  114  115 1   
   115  114  125 1   
   116  115  116 1   
   117  115  118 1   
   118  115  126 1   
   119  116  117 2   
   120  116  134 1   
   121  118  119 1   
   122  118  127 1   
   123  118  128 1   
   124  119  120 ar  
   125  119  121 ar  
   126  120  122 ar  
   127  120  129 1   
   128  121  123 ar  
   129  121  130 1   
   130  122  124 ar  
   131  122  131 1   
   132  123  124 ar  
   133  123  132 1   
   134  124  133 1   
   135  134  135 1   
   136  134  140 1   
   137  135  136 1   
   138  135  138 1   
   139  135  141 1   
   140  136  137 2   
   141  136  148 1   
   142  138  139 1   
   143  138  142 1   
   144  138  143 1   
   145  139  140 1   
   146  139  144 1   
   147  139  145 1   
   148  140  146 1   
   149  140  147 1   
   150  148  149 1   
   151  148  157 1   
   152  149  150 1   
   153  149  152 1   
   154  149  158 1   
   155  150  151 2   
   156  150  163 1   
   157  152  153 1   
   158  152  159 1   
   159  152  160 1   
   160  153  154 1   
   161  153  161 1   
   162  153  162 1   
   163  154  155 1   
   164  154  156 1   
   165  163  164 1   
   166  163  168 1   
   167  164  165 1   
   168  164  166 1   
   169  164  167 1   
   170  170  171 1   
   171  170  172 1   
   172  173  174 1   
   173  173  175 1   
@<TRIPOS>SUBSTRUCTURE
     1 MOL         1 TEMP              0 ****  ****    0 ROOT
