@<TRIPOS>MOLECULE
MOL
  178   175     1     0     0
SMALL
resp


@<TRIPOS>ATOM
      1 C1          1.1810    6.6390   -1.8540 c3        1 MOL     -0.385946
      2 C2          2.5780    6.3260   -1.2730 c         1 MOL      0.774300
      3 O1          2.9890    6.9210   -0.3410 o         1 MOL     -0.595905
      4 H1          1.2670    7.4240   -2.6050 hc        1 MOL      0.090453
      5 H2          0.7700    5.7410   -2.3140 hc        1 MOL      0.090453
      6 H3          0.5210    6.9730   -1.0530 hc        1 MOL      0.090453
      7 N1          3.3630    5.5220   -2.0230 n         1 MOL     -0.736827
      8 C3          4.7230    5.2270   -1.5680 c3        1 MOL      0.359372
      9 C4          4.6130    4.1530   -0.4350 c         1 MOL      0.635639
     10 O2          3.8830    3.1480   -0.4810 o         1 MOL     -0.612752
     11 C5          5.5870    4.7420   -2.7280 c3        1 MOL     -0.296651
     12 C6          6.9180    4.0760   -2.3410 c         1 MOL      0.775067
     13 O3          7.4180    4.5270   -1.2810 o         1 MOL     -0.740797
     14 O4          7.4050    3.1360   -2.9980 o         1 MOL     -0.740797
     15 H4          2.9440    5.1180   -2.8500 hn        1 MOL      0.331592
     16 H5          5.1740    6.0850   -1.0780 h1        1 MOL      0.008764
     17 H6          5.9130    5.5500   -3.3870 hc        1 MOL      0.029451
     18 H7          5.0560    3.9720   -3.2830 hc        1 MOL      0.029451
     19 N2          5.3620    4.4180    0.6490 n         1 MOL     -0.622020
     20 C7          5.3580    3.6680    1.9700 c3        1 MOL      0.538971
     21 C8          3.9800    3.3760    2.5960 c         1 MOL      0.295612
     22 O5          3.0750    4.2250    2.6900 o         1 MOL     -0.524061
     23 C9          6.3050    4.3350    2.9520 c3        1 MOL     -0.535783
     24 H8          6.1230    5.0460    0.4710 hn        1 MOL      0.294092
     25 H9          5.7570    2.7090    1.6570 h1        1 MOL     -0.022558
     26 H10         5.6460    5.1800    3.1810 hc        1 MOL      0.137306
     27 H11         6.4900    3.6420    3.7700 hc        1 MOL      0.137306
     28 H12         7.2470    4.6200    2.4720 hc        1 MOL      0.137306
     29 N3          3.7210    2.1410    3.0980 n         1 MOL     -0.079498
     30 C10         4.6200    0.9700    3.3420 c3        1 MOL     -0.117683
     31 C11         4.6810    0.0590    2.1090 c         1 MOL      0.580390
     32 O6          3.6910   -0.0930    1.3880 o         1 MOL     -0.629326
     33 C12         4.2670    0.1950    4.5860 c3        1 MOL     -0.067853
     34 C13         2.8190   -0.1670    4.9050 c         1 MOL      0.685059
     35 O7          2.5440   -0.6630    5.9750 o         1 MOL     -0.669562
     36 O8          1.9370   -0.0080    4.0230 o         1 MOL     -0.669562
     37 H13         2.8410    1.9860    3.5580 hn        1 MOL      0.088386
     38 H14         5.6640    1.2620    3.4920 h1        1 MOL      0.029582
     39 H15         4.6690    0.7130    5.4540 hc        1 MOL      0.020439
     40 H16         4.7440   -0.7770    4.6020 hc        1 MOL      0.020439
     41 N4          5.7590   -0.7120    1.9610 n         1 MOL     -0.552771
     42 C14         6.0040   -1.4950    0.7020 c3        1 MOL      0.267660
     43 C15         7.2030   -0.9940   -0.1340 c         1 MOL      0.560661
     44 O9          7.7260    0.0840    0.0620 o         1 MOL     -0.502526
     45 H17         6.4190   -0.5630    2.7020 hn        1 MOL      0.295862
     46 H18         5.0780   -1.5560    0.1370 h1        1 MOL      0.049862
     47 H19         6.2480   -2.4810    1.1090 h1        1 MOL      0.049862
     48 N5          7.6580   -1.8330   -1.1030 n         1 MOL     -0.635641
     49 C16         7.2340   -3.1750   -1.5350 c3        1 MOL      0.018932
     50 C17         6.1210   -3.1010   -2.5550 c         1 MOL      0.567786
     51 O10         5.7850   -4.1590   -3.1310 o         1 MOL     -0.563825
     52 C18         8.4510   -4.0270   -1.9220 c3        1 MOL     -0.258345
     53 C19         9.5260   -3.9390   -0.8930 c         1 MOL      0.701579
     54 N6         10.6790   -4.2500   -1.3540 n         1 MOL     -0.793136
     55 O11         9.3560   -3.5490    0.2620 o         1 MOL     -0.555936
     56 H20         8.4840   -1.5400   -1.5980 hn        1 MOL      0.349258
     57 H21         6.8240   -3.6690   -0.6560 h1        1 MOL      0.105146
     58 H22         8.9010   -3.7140   -2.8640 hc        1 MOL      0.083263
     59 H23         8.0440   -5.0260   -2.0940 hc        1 MOL      0.083263
     60 H24        10.6940   -4.3780   -2.3590 hn        1 MOL      0.369515
     61 H25        11.4510   -4.1410   -0.7100 hn        1 MOL      0.369515
     62 N7          5.5680   -1.9760   -2.8770 n         1 MOL     -0.361275
     63 C20         4.3330   -1.9680   -3.6920 c3        1 MOL     -0.247377
     64 C21         3.0340   -2.4670   -3.0010 c         1 MOL      0.620896
     65 O12         1.9690   -2.4080   -3.5330 o         1 MOL     -0.564364
     66 H26         5.8470   -1.0990   -2.4550 hn        1 MOL      0.321193
     67 H27         4.5450   -2.5280   -4.6050 h1        1 MOL      0.141426
     68 H28         4.1090   -0.9380   -3.9780 h1        1 MOL      0.141426
     69 N8          3.1460   -2.9930   -1.7710 n         1 MOL     -0.245293
     70 C22         2.0130   -3.7620   -1.1350 c3        1 MOL     -0.372961
     71 C23         0.7800   -2.8420   -0.8000 c         1 MOL      0.761687
     72 O13         0.8980   -1.7600   -0.1850 o         1 MOL     -0.614483
     73 C24         2.4710   -4.5520    0.1270 c3        1 MOL      0.387343
     74 C25         3.2910   -5.7810   -0.3910 c3        1 MOL     -0.355940
     75 O14         3.3350   -3.7070    0.8170 oh        1 MOL     -0.621118
     76 H29         4.0290   -2.9600   -1.2840 hn        1 MOL      0.144899
     77 H30         1.6590   -4.5800   -1.7700 h1        1 MOL      0.168325
     78 H31         1.6140   -4.7690    0.7670 h1        1 MOL     -0.010284
     79 H32         2.8780   -2.9510    1.2000 ho        1 MOL      0.384678
     80 H33         3.5230   -6.4970    0.4000 hc        1 MOL      0.101277
     81 H34         2.7840   -6.2590   -1.2340 hc        1 MOL      0.101277
     82 H35         4.2870   -5.4930   -0.7160 hc        1 MOL      0.101277
     83 N9         -0.4060   -3.2970   -1.1590 n         1 MOL     -0.396366
     84 C26        -1.7510   -2.7100   -1.0560 c3        1 MOL     -0.042988
     85 C27        -2.3100   -2.9580    0.3230 c         1 MOL      0.311576
     86 O15        -2.0750   -4.0230    0.8460 o         1 MOL     -0.492271
     87 C28        -2.6830   -3.3140   -2.2010 c3        1 MOL      0.146282
     88 C29        -4.1980   -2.7950   -2.0540 c3        1 MOL      0.237322
     89 C30        -2.1840   -3.1050   -3.6670 c3        1 MOL     -0.172438
     90 C31        -5.2000   -3.2410   -3.0980 c3        1 MOL     -0.167211
     91 H36        -0.3150   -4.1510   -1.6940 hn        1 MOL      0.221158
     92 H37        -1.6280   -1.6310   -1.0470 h1        1 MOL      0.099382
     93 H38        -2.7430   -4.3950   -2.1120 hc        1 MOL     -0.002589
     94 H39        -4.1870   -1.7090   -2.0050 hc        1 MOL     -0.057845
     95 H40        -4.4750   -3.2100   -1.0800 hc        1 MOL     -0.057845
     96 H41        -1.0970   -3.2150   -3.7310 hc        1 MOL      0.035552
     97 H42        -2.6130   -3.7590   -4.4230 hc        1 MOL      0.035552
     98 H43        -2.4310   -2.1000   -3.9890 hc        1 MOL      0.035552
     99 H44        -5.1530   -2.4910   -3.8840 hc        1 MOL      0.014517
    100 H45        -5.0730   -4.2790   -3.4190 hc        1 MOL      0.014517
    101 H46        -6.1550   -3.1810   -2.5620 hc        1 MOL      0.014517
    102 N10        -3.0880   -2.0580    0.9740 n         1 MOL     -0.066271
    103 C32        -3.8860   -2.4270    2.1630 c3        1 MOL     -0.050400
    104 C33        -5.3450   -2.0090    2.1260 c         1 MOL      0.590301
    105 O16        -6.0650   -2.4200    3.0070 o         1 MOL     -0.556031
    106 C34        -3.2570   -1.8340    3.4260 c3        1 MOL     -0.040613
    107 C35        -1.7440   -1.7750    3.3440 c         1 MOL      0.888991
    108 O17        -1.1450   -2.8740    3.5500 o         1 MOL     -0.769144
    109 O18        -1.1140   -0.6950    3.3470 o         1 MOL     -0.769144
    110 H47        -3.2270   -1.1500    0.5680 hn        1 MOL     -0.046650
    111 H48        -3.7900   -3.5120    2.2530 h1        1 MOL      0.081264
    112 H49        -3.4350   -2.3680    4.3640 hc        1 MOL     -0.000416
    113 H50        -3.6200   -0.8220    3.5840 hc        1 MOL     -0.000416
    114 N11        -5.7270   -1.1040    1.1900 n         1 MOL     -0.719016
    115 C36        -7.1690   -0.7130    0.9680 c3        1 MOL      0.256409
    116 C37        -7.2130    0.7140    0.3730 c         1 MOL      0.195847
    117 O19        -7.6430    0.7830   -0.7750 o         1 MOL     -0.430285
    118 C38        -7.8430   -1.8330    0.2380 c3        1 MOL     -0.358633
    119 C39        -9.3710   -1.6690    0.2430 ca        1 MOL      0.249906
    120 C40        -9.9120   -1.1460   -0.9310 ca        1 MOL     -0.261065
    121 C41       -10.1990   -2.2360    1.2590 ca        1 MOL     -0.261065
    122 C42       -11.3050   -1.0620   -0.9710 ca        1 MOL     -0.044065
    123 C43       -11.6290   -2.3060    1.0480 ca        1 MOL     -0.044065
    124 C44       -12.1430   -1.7210   -0.0900 ca        1 MOL     -0.202413
    125 H51        -4.9790   -0.6080    0.7130 hn        1 MOL      0.476996
    126 H52        -7.6490   -0.6870    1.9420 h1        1 MOL      0.038340
    127 H53        -7.4820   -2.8080    0.5500 hc        1 MOL      0.143214
    128 H54        -7.4680   -1.8480   -0.7870 hc        1 MOL      0.143214
    129 H55        -9.4010   -0.7660   -1.8090 ha        1 MOL      0.153843
    130 H56        -9.7550   -2.6020    2.1660 ha        1 MOL      0.153843
    131 H57       -11.7280   -0.6470   -1.8710 ha        1 MOL      0.084076
    132 H58       -12.2680   -2.7400    1.7970 ha        1 MOL      0.084076
    133 H59       -13.2150   -1.6460   -0.2310 ha        1 MOL      0.106146
    134 N12        -6.7270    1.7570    1.0560 n         1 MOL      0.034264
    135 C45        -6.7270    3.1270    0.5020 c3        1 MOL      0.039932
    136 C46        -5.9980    3.4000   -0.7830 c         1 MOL      0.143718
    137 O20        -6.5050    4.2040   -1.5430 o         1 MOL     -0.469936
    138 C47        -5.9810    3.9670    1.5180 c3        1 MOL      0.063719
    139 C48        -6.2460    3.3520    2.8840 c3        1 MOL     -0.280347
    140 C49        -6.2790    1.8500    2.4520 c3        1 MOL      0.019448
    141 H60        -7.7550    3.4720    0.4890 h1        1 MOL      0.059126
    142 H61        -4.9150    3.9720    1.2910 hc        1 MOL      0.029799
    143 H62        -6.3720    4.9880    1.4270 hc        1 MOL      0.029799
    144 H63        -5.3760    3.5510    3.5120 hc        1 MOL      0.089373
    145 H64        -7.1720    3.7260    3.3070 hc        1 MOL      0.089373
    146 H65        -5.2610    1.5110    2.6190 h1        1 MOL      0.056847
    147 H66        -7.0760    1.3820    3.0370 h1        1 MOL      0.056847
    148 N13        -5.0920    2.5110   -1.2340 n         1 MOL      0.113166
    149 C50        -4.4660    2.5770   -2.5580 c3        1 MOL     -0.185026
    150 C51        -5.4360    2.3760   -3.7120 c         1 MOL      0.463010
    151 O21        -5.4890    3.1870   -4.6120 o         1 MOL     -0.542793
    152 C52        -3.2940    1.6300   -2.5470 c3        1 MOL      0.078579
    153 C53        -2.3190    1.9590   -1.4030 c3        1 MOL     -0.120904
    154 C54        -2.3950    0.9960   -0.1480 c         1 MOL      0.760095
    155 O22        -1.3370    0.5190    0.3490 o         1 MOL     -0.682330
    156 O23        -3.5340    0.8490    0.3610 o         1 MOL     -0.682330
    157 H67        -4.7880    1.7550   -0.6410 hn        1 MOL      0.081675
    158 H68        -4.0560    3.5710   -2.7130 h1        1 MOL      0.104959
    159 H69        -2.8290    1.7110   -3.5300 hc        1 MOL     -0.015700
    160 H70        -3.6210    0.5910   -2.4950 hc        1 MOL     -0.015700
    161 H71        -2.5380    2.9910   -1.1030 hc        1 MOL      0.016351
    162 H72        -1.2920    1.8960   -1.7640 hc        1 MOL      0.016351
    163 N14        -6.3480    1.4170   -3.6180 n         1 MOL     -0.158794
    164 C55        -7.3550    1.1860   -4.6460 c3        1 MOL     -0.194946
    165 H73        -7.2990    1.9790   -5.3920 h1        1 MOL      0.083709
    166 H74        -7.1740    0.2240   -5.1240 h1        1 MOL      0.083709
    167 H75        -8.3450    1.1860   -4.1910 h1        1 MOL      0.083709
    168 H76        -6.4510    0.9610   -2.7280 hn        1 MOL      0.173565
    169 Ca1         0.8830    0.0300    1.7470 Ca        1 MOL      1.738228
    170 O24         1.3090   -2.6940    2.7130 oh        1 MOL     -0.893982
    171 H77         0.4370   -2.8890    3.0590 ho        1 MOL      0.432227
    172 H78         1.7420   -3.5440    2.6720 ho        1 MOL      0.432227
    173 O25         0.7570    2.6370    2.1290 oh        1 MOL     -0.893982
    174 H79         1.5520    3.1300    2.3250 ho        1 MOL      0.432227
    175 H80         0.0520    3.1450    2.5260 ho        1 MOL      0.432227
    176 O26         1.3810    1.4990   -0.4020 oh        1 MOL     -0.893982
    177 H81         1.5890    1.2920   -1.3110 ho        1 MOL      0.432227
    178 H82         1.9100    2.2640   -0.1980 ho        1 MOL      0.432227
@<TRIPOS>BOND
     1    1    2 1   
     2    1    4 1   
     3    1    5 1   
     4    1    6 1   
     5    2    3 2   
     6    2    7 1   
     7    7    8 1   
     8    7   15 1   
     9    8    9 1   
    10    8   11 1   
    11    8   16 1   
    12    9   10 2   
    13    9   19 1   
    14   11   12 1   
    15   11   17 1   
    16   11   18 1   
    17   12   13 1   
    18   12   14 1   
    19   19   20 1   
    20   19   24 1   
    21   20   21 1   
    22   20   23 1   
    23   20   25 1   
    24   21   22 2   
    25   21   29 1   
    26   23   26 1   
    27   23   27 1   
    28   23   28 1   
    29   29   30 1   
    30   29   37 1   
    31   30   31 1   
    32   30   33 1   
    33   30   38 1   
    34   31   32 2   
    35   31   41 1   
    36   33   34 1   
    37   33   39 1   
    38   33   40 1   
    39   34   35 1   
    40   34   36 1   
    41   41   42 1   
    42   41   45 1   
    43   42   43 1   
    44   42   46 1   
    45   42   47 1   
    46   43   44 2   
    47   43   48 1   
    48   48   49 1   
    49   48   56 1   
    50   49   50 1   
    51   49   52 1   
    52   49   57 1   
    53   50   51 2   
    54   50   62 1   
    55   52   53 1   
    56   52   58 1   
    57   52   59 1   
    58   53   54 1   
    59   53   55 2   
    60   54   60 1   
    61   54   61 1   
    62   62   63 1   
    63   62   66 1   
    64   63   64 1   
    65   63   67 1   
    66   63   68 1   
    67   64   65 2   
    68   64   69 1   
    69   69   70 1   
    70   69   76 1   
    71   70   71 1   
    72   70   73 1   
    73   70   77 1   
    74   71   72 2   
    75   71   83 1   
    76   73   74 1   
    77   73   75 1   
    78   73   78 1   
    79   74   80 1   
    80   74   81 1   
    81   74   82 1   
    82   75   79 1   
    83   83   84 1   
    84   83   91 1   
    85   84   85 1   
    86   84   87 1   
    87   84   92 1   
    88   85   86 2   
    89   85  102 1   
    90   87   88 1   
    91   87   89 1   
    92   87   93 1   
    93   88   90 1   
    94   88   94 1   
    95   88   95 1   
    96   89   96 1   
    97   89   97 1   
    98   89   98 1   
    99   90   99 1   
   100   90  100 1   
   101   90  101 1   
   102  102  103 1   
   103  102  110 1   
   104  103  104 1   
   105  103  106 1   
   106  103  111 1   
   107  104  105 2   
   108  104  114 1   
   109  106  107 1   
   110  106  112 1   
   111  106  113 1   
   112  107  108 1   
   113  107  109 1   
   114  114  115 1   
   115  114  125 1   
   116  115  116 1   
   117  115  118 1   
   118  115  126 1   
   119  116  117 2   
   120  116  134 1   
   121  118  119 1   
   122  118  127 1   
   123  118  128 1   
   124  119  120 ar  
   125  119  121 ar  
   126  120  122 ar  
   127  120  129 1   
   128  121  123 ar  
   129  121  130 1   
   130  122  124 ar  
   131  122  131 1   
   132  123  124 ar  
   133  123  132 1   
   134  124  133 1   
   135  134  135 1   
   136  134  140 1   
   137  135  136 1   
   138  135  138 1   
   139  135  141 1   
   140  136  137 2   
   141  136  148 1   
   142  138  139 1   
   143  138  142 1   
   144  138  143 1   
   145  139  140 1   
   146  139  144 1   
   147  139  145 1   
   148  140  146 1   
   149  140  147 1   
   150  148  149 1   
   151  148  157 1   
   152  149  150 1   
   153  149  152 1   
   154  149  158 1   
   155  150  151 2   
   156  150  163 1   
   157  152  153 1   
   158  152  159 1   
   159  152  160 1   
   160  153  154 1   
   161  153  161 1   
   162  153  162 1   
   163  154  155 1   
   164  154  156 1   
   165  163  164 1   
   166  163  168 1   
   167  164  165 1   
   168  164  166 1   
   169  164  167 1   
   170  170  171 1   
   171  170  172 1   
   172  173  174 1   
   173  173  175 1   
   174  176  177 1   
   175  176  178 1   
@<TRIPOS>SUBSTRUCTURE
     1 MOL         1 TEMP              0 ****  ****    0 ROOT
