@<TRIPOS>MOLECULE
MOL
  186   183     1     0     0
SMALL
resp


@<TRIPOS>ATOM
      1 C1         -4.3340    4.1450    3.1800 c3        1 MOL     -0.566060
      2 C2         -5.2840    3.4290    2.2040 c         1 MOL      0.647579
      3 O1         -4.8750    3.2200    1.0390 o         1 MOL     -0.521703
      4 H1         -4.7990    4.2010    4.1640 hc        1 MOL      0.158080
      5 H2         -3.3990    3.5880    3.2530 hc        1 MOL      0.158080
      6 H3         -4.1300    5.1520    2.8180 hc        1 MOL      0.158080
      7 N1         -6.4850    3.0080    2.5710 n         1 MOL     -0.474825
      8 C3         -7.3530    1.9880    1.9820 c3        1 MOL      0.156693
      9 C4         -6.4750    0.8520    1.5490 c         1 MOL      0.563436
     10 O2         -6.0380    0.7190    0.4120 o         1 MOL     -0.715123
     11 C5         -8.3300    2.5140    0.9190 c3        1 MOL     -0.202611
     12 C6         -7.6390    3.3970   -0.1190 c         1 MOL      0.862622
     13 O3         -7.0080    2.8890   -1.0630 o         1 MOL     -0.773462
     14 O4         -7.7960    4.6160    0.0370 o         1 MOL     -0.773462
     15 H4         -6.7510    3.0620    3.5440 hn        1 MOL      0.264411
     16 H5         -7.9520    1.5540    2.7880 h1        1 MOL      0.019720
     17 H6         -9.0540    3.0770    1.5040 hc        1 MOL      0.038918
     18 H7         -8.8330    1.8160    0.2550 hc        1 MOL      0.038918
     19 N2         -6.0190    0.0660    2.4840 n         1 MOL     -0.578966
     20 C7         -5.1290   -1.1270    2.4880 c3        1 MOL      0.112404
     21 C8         -5.5470   -2.3950    1.6600 c         1 MOL      0.369046
     22 O5         -5.2730   -3.4770    2.1320 o         1 MOL     -0.536502
     23 C9         -3.6390   -0.8070    2.2770 c3        1 MOL      0.233404
     24 C10        -2.6110   -1.9040    2.4670 c3        1 MOL     -0.158426
     25 C11        -3.1720    0.3780    3.1920 c3        1 MOL     -0.266633
     26 C12        -2.5110   -2.6830    3.7530 c3        1 MOL     -0.236803
     27 H8         -6.3480    0.2970    3.4050 hn        1 MOL      0.283065
     28 H9         -5.1710   -1.4500    3.5190 h1        1 MOL      0.045992
     29 H10        -3.4860   -0.4340    1.2570 hc        1 MOL      0.049945
     30 H11        -1.6400   -1.4380    2.2890 hc        1 MOL      0.108157
     31 H12        -2.6950   -2.6180    1.6350 hc        1 MOL      0.108157
     32 H13        -3.6370    1.3020    2.8250 hc        1 MOL      0.040249
     33 H14        -3.4560    0.1640    4.2240 hc        1 MOL      0.040249
     34 H15        -2.1080    0.5980    3.1440 hc        1 MOL      0.040249
     35 H16        -1.6700   -3.3810    3.7740 hc        1 MOL      0.049893
     36 H17        -2.3500   -2.0140    4.5990 hc        1 MOL      0.049893
     37 H18        -3.4280   -3.2660    3.8530 hc        1 MOL      0.049893
     38 N3         -6.3040   -2.2830    0.5830 n         1 MOL     -0.189855
     39 C13        -7.0960   -3.3490   -0.0630 c3        1 MOL      0.046398
     40 C14        -6.4080   -4.6160   -0.7330 c         1 MOL      0.702630
     41 O6         -7.0660   -5.5900   -0.6650 o         1 MOL     -0.608211
     42 C15        -7.9650   -2.8020   -1.1510 c3        1 MOL     -0.506419
     43 C16        -8.9720   -1.6400   -0.7500 c         1 MOL      0.834949
     44 O7         -9.7930   -1.8290    0.1670 o         1 MOL     -0.737044
     45 O8         -9.0140   -0.5800   -1.4130 o         1 MOL     -0.737044
     46 H19        -6.4410   -1.3140    0.3320 hn        1 MOL      0.297578
     47 H20        -7.7700   -3.6370    0.7490 h1        1 MOL      0.051364
     48 H21        -8.6230   -3.5820   -1.5460 hc        1 MOL      0.129850
     49 H22        -7.2600   -2.5550   -1.9460 hc        1 MOL      0.129850
     50 N4         -5.1760   -4.6510   -1.0980 n         1 MOL     -0.609940
     51 C17        -4.2210   -3.5990   -1.5290 c3        1 MOL      0.144256
     52 C18        -4.4790   -3.0970   -2.9250 c         1 MOL      0.556015
     53 O9         -5.5090   -3.5020   -3.5050 o         1 MOL     -0.580176
     54 H23        -4.9940   -5.5160   -1.5840 hn        1 MOL      0.296596
     55 H24        -3.2170   -3.9900   -1.6460 h1        1 MOL      0.046772
     56 H25        -4.2350   -2.7640   -0.8270 h1        1 MOL      0.046772
     57 N5         -3.6750   -2.2730   -3.5730 n         1 MOL     -0.508576
     58 C19        -2.4530   -1.5760   -3.1740 c3        1 MOL     -0.045866
     59 C20        -2.5990   -0.8910   -1.8370 c         1 MOL     -0.026647
     60 O10        -3.6610   -0.4720   -1.3820 o         1 MOL     -0.252868
     61 C21        -2.0840   -0.4270   -4.1790 c3        1 MOL     -0.038382
     62 C22        -3.1780    0.6620   -4.2860 c         1 MOL      0.664343
     63 O11        -4.0000    0.5530   -5.1850 o         1 MOL     -0.666365
     64 O12        -3.1160    1.5180   -3.3870 o         1 MOL     -0.666365
     65 H26        -4.0280   -1.9550   -4.4690 hn        1 MOL      0.352041
     66 H27        -1.6690   -2.3260   -3.0490 h1        1 MOL      0.094146
     67 H28        -1.8510   -0.7960   -5.1790 hc        1 MOL      0.006377
     68 H29        -1.2030    0.0960   -3.8030 hc        1 MOL      0.006377
     69 N6         -1.5100   -0.8590   -1.0490 n         1 MOL     -0.086292
     70 C23        -0.1610   -1.1970   -1.4360 c3        1 MOL      0.359828
     71 C24         0.1660   -2.5540   -0.9250 c         1 MOL      0.268083
     72 O13        -0.6430   -3.3880   -0.4790 o         1 MOL     -0.504363
     73 H30        -1.5980   -0.3440   -0.1830 hn        1 MOL      0.075757
     74 H31         0.4280   -0.4030   -0.9830 h1        1 MOL     -0.022699
     75 H32        -0.0270   -1.1180   -2.5200 h1        1 MOL     -0.022699
     76 N7          1.4420   -2.8750   -1.0840 n         1 MOL     -0.303103
     77 C25         2.0140   -4.1810   -0.9900 c3        1 MOL      0.203969
     78 C26         2.7420   -4.4430    0.3740 c         1 MOL      0.232199
     79 O14         3.1630   -5.5660    0.6060 o         1 MOL     -0.489618
     80 C27         2.9370   -4.5840   -2.1690 c3        1 MOL      0.060845
     81 C28         4.3590   -4.0220   -2.2010 c3        1 MOL     -0.212564
     82 C29         4.3540   -2.4600   -2.3130 c         1 MOL      0.205307
     83 N8          4.1500   -1.9410   -3.5080 n         1 MOL     -0.589781
     84 O15         4.4840   -1.8380   -1.2720 o         1 MOL     -0.270567
     85 H33         1.9860   -2.1320   -1.5090 hn        1 MOL      0.197248
     86 H34         1.2200   -4.9230   -1.0380 h1        1 MOL      0.090583
     87 H35         2.4910   -4.3310   -3.1350 hc        1 MOL     -0.010032
     88 H36         3.0450   -5.6610   -2.0810 hc        1 MOL     -0.010032
     89 H37         5.0000   -4.5980   -2.8700 hc        1 MOL      0.108894
     90 H38         4.9620   -4.3530   -1.3470 hc        1 MOL      0.108894
     91 H39         4.1120   -2.6090   -4.2630 hn        1 MOL      0.349703
     92 H40         4.2460   -0.9510   -3.6530 hn        1 MOL      0.349703
     93 N9          2.7960   -3.4460    1.2170 n         1 MOL     -0.058676
     94 C30         3.3640   -3.5810    2.5380 c3        1 MOL     -0.190435
     95 C31         4.6330   -2.7920    2.8280 c         1 MOL      0.462634
     96 O16         5.2440   -2.8210    3.9070 o         1 MOL     -0.569488
     97 C32         2.3460   -3.5640    3.6830 c3        1 MOL      0.329398
     98 C33         1.3490   -4.7390    3.5750 c3        1 MOL     -0.394185
     99 C34         1.4240   -2.3210    3.5870 c3        1 MOL     -0.394185
    100 H41         2.4740   -2.5220    0.9530 hn        1 MOL      0.189363
    101 H42         3.7840   -4.5830    2.6220 h1        1 MOL      0.142956
    102 H43         2.8980   -3.5340    4.6280 hc        1 MOL     -0.014066
    103 H44         1.9510   -5.5940    3.8630 hc        1 MOL      0.092621
    104 H45         0.7020   -4.5280    4.4260 hc        1 MOL      0.092621
    105 H46         0.6860   -4.7410    2.7120 hc        1 MOL      0.092621
    106 H47         0.7460   -2.4420    2.7410 hc        1 MOL      0.092621
    107 H48         0.9290   -2.2040    4.5520 hc        1 MOL      0.092621
    108 H49         2.0700   -1.4920    3.2950 hc        1 MOL      0.092621
    109 N10         5.1480   -2.2190    1.7850 n         1 MOL     -0.176294
    110 C35         6.4680   -1.6080    1.8970 c3        1 MOL     -0.001925
    111 C36         6.4720   -0.1330    1.4400 c         1 MOL      0.567514
    112 O17         7.3490    0.5330    1.9260 o         1 MOL     -0.577556
    113 C37         7.4110   -2.4840    1.0640 c3        1 MOL     -0.375066
    114 C38         7.5420   -3.8450    1.6280 c         1 MOL      0.630855
    115 N11         8.0130   -3.9190    2.8130 n         1 MOL     -0.721815
    116 O18         7.2050   -4.8710    0.9630 o         1 MOL     -0.573811
    117 H50         4.6650   -2.3090    0.8970 hn        1 MOL      0.150499
    118 H51         6.8230   -1.5350    2.9210 h1        1 MOL      0.088453
    119 H52         8.4100   -2.0500    0.9710 hc        1 MOL      0.135595
    120 H53         6.9590   -2.5690    0.0790 hc        1 MOL      0.135595
    121 H54         8.1440   -3.0530    3.3290 hn        1 MOL      0.357083
    122 H55         8.2610   -4.7990    3.2470 hn        1 MOL      0.357083
    123 N12         5.6430    0.3290    0.5330 n         1 MOL     -0.472759
    124 C39         5.9150    1.5850   -0.1870 c3        1 MOL      0.458398
    125 C40         4.6780    2.4530   -0.3390 c         1 MOL      0.219329
    126 O19         3.5880    1.8830   -0.5120 o         1 MOL     -0.413882
    127 C41         6.6800    1.3770   -1.5250 c3        1 MOL     -0.247347
    128 C42         8.0260    0.7240   -1.4670 ca        1 MOL      0.052752
    129 C43         9.1530    1.4270   -1.0130 ca        1 MOL     -0.101626
    130 C44         8.1810   -0.6840   -1.8950 ca        1 MOL     -0.101626
    131 C45        10.4060    0.9060   -1.2230 ca        1 MOL     -0.294579
    132 C46         9.5170   -1.1800   -2.1130 ca        1 MOL     -0.294579
    133 C47        10.6020   -0.2890   -1.8600 ca        1 MOL      0.356334
    134 O20        11.9180   -0.6380   -2.1160 oh        1 MOL     -0.540446
    135 H56         4.9950   -0.3650    0.1730 hn        1 MOL      0.098965
    136 H57         6.5840    2.2200    0.3930 h1        1 MOL     -0.007976
    137 H58         6.8190    2.3450   -2.0140 hc        1 MOL      0.088889
    138 H59         5.9670    0.8000   -2.1080 hc        1 MOL      0.088889
    139 H60         9.0080    2.4250   -0.6400 ha        1 MOL      0.132859
    140 H61         7.3330   -1.2580   -2.2490 ha        1 MOL      0.132859
    141 H62        11.2820    1.4560   -0.9310 ha        1 MOL      0.145410
    142 H63         9.7210   -2.1510   -2.5480 ha        1 MOL      0.145410
    143 H64        12.5470   -0.0300   -1.7150 ho        1 MOL      0.369018
    144 N13         4.7940    3.7770   -0.2470 n         1 MOL     -0.452342
    145 C48         3.6980    4.7470   -0.4600 c3        1 MOL      0.045705
    146 C49         2.5370    4.8370    0.5500 c         1 MOL      0.289461
    147 O21         1.9870    5.9360    0.8130 o         1 MOL     -0.496958
    148 C50         3.1230    4.6140   -1.8850 c3        1 MOL     -0.024377
    149 C51         4.2030    4.4400   -2.9630 c3        1 MOL     -0.188610
    150 C52         5.2660    5.5530   -3.1050 c         1 MOL      0.686355
    151 O22         5.1220    6.4480   -3.9950 o         1 MOL     -0.715330
    152 O23         6.3700    5.4280   -2.4820 o         1 MOL     -0.715330
    153 H65         5.6720    4.1160    0.1220 hn        1 MOL      0.313150
    154 H66         4.2320    5.7010   -0.4920 h1        1 MOL      0.089701
    155 H67         2.4920    5.4430   -2.1920 hc        1 MOL      0.053771
    156 H68         2.4950    3.7200   -1.8760 hc        1 MOL      0.053771
    157 H69         3.6870    4.3660   -3.9200 hc        1 MOL      0.031430
    158 H70         4.5450    3.4140   -2.8470 hc        1 MOL      0.031430
    159 N14         1.9550    3.7490    1.0720 n         1 MOL     -0.084128
    160 C53         0.7800    3.7700    1.9680 c3        1 MOL     -0.331482
    161 C54         1.0650    4.4590    3.3130 c         1 MOL      0.531080
    162 O24         0.1760    5.1160    3.8360 o         1 MOL     -0.530700
    163 C55         0.1030    2.4120    2.1140 c3        1 MOL      0.011759
    164 C56        -0.2630    1.6590    0.8580 c3        1 MOL      0.606309
    165 C57        -1.4160    2.3360    0.0440 c         1 MOL      0.575063
    166 O25        -2.5600    1.8500    0.1140 o         1 MOL     -0.653978
    167 O26        -1.1690    3.4030   -0.5190 o         1 MOL     -0.653978
    168 H71         2.4280    2.8740    0.9070 hn        1 MOL      0.221733
    169 H72         0.0040    4.3010    1.4130 h1        1 MOL      0.211087
    170 H73        -0.8010    2.6320    2.6760 hc        1 MOL     -0.036304
    171 H74         0.7660    1.8080    2.7310 hc        1 MOL     -0.036304
    172 H75        -0.5200    0.6210    1.0440 hc        1 MOL     -0.256880
    173 H76         0.5650    1.6540    0.1460 hc        1 MOL     -0.256880
    174 N15         2.2680    4.3720    3.8790 n         1 MOL     -0.243669
    175 C58         2.6900    5.0800    5.0650 c3        1 MOL     -0.145344
    176 H77         3.4680    5.7970    4.8020 h1        1 MOL      0.072263
    177 H78         1.8390    5.6100    5.4950 h1        1 MOL      0.072263
    178 H79         3.0820    4.3690    5.7920 h1        1 MOL      0.072263
    179 H80         2.9880    3.8770    3.3660 hn        1 MOL      0.214051
    180 Ca1        -4.6260    2.0690   -1.3480 Ca        1 MOL      1.727965
    181 O27        -6.2350    0.2980   -2.7260 oh        1 MOL     -0.945894
    182 H81        -6.5040    0.1550   -3.6290 ho        1 MOL      0.442463
    183 H82        -7.0310    0.1790   -2.2120 ho        1 MOL      0.442463
    184 O28        -3.6350    4.5710   -1.5790 oh        1 MOL     -0.945894
    185 H83        -3.9040    5.3320   -1.0590 ho        1 MOL      0.442463
    186 H84        -2.6770    4.5670   -1.5300 ho        1 MOL      0.442463
@<TRIPOS>BOND
     1    1    2 1   
     2    1    4 1   
     3    1    5 1   
     4    1    6 1   
     5    2    3 2   
     6    2    7 1   
     7    7    8 1   
     8    7   15 1   
     9    8    9 1   
    10    8   11 1   
    11    8   16 1   
    12    9   10 2   
    13    9   19 1   
    14   11   12 1   
    15   11   17 1   
    16   11   18 1   
    17   12   13 1   
    18   12   14 1   
    19   19   20 1   
    20   19   27 1   
    21   20   21 1   
    22   20   23 1   
    23   20   28 1   
    24   21   22 2   
    25   21   38 1   
    26   23   24 1   
    27   23   25 1   
    28   23   29 1   
    29   24   26 1   
    30   24   30 1   
    31   24   31 1   
    32   25   32 1   
    33   25   33 1   
    34   25   34 1   
    35   26   35 1   
    36   26   36 1   
    37   26   37 1   
    38   38   39 1   
    39   38   46 1   
    40   39   40 1   
    41   39   42 1   
    42   39   47 1   
    43   40   41 2   
    44   40   50 1   
    45   42   43 1   
    46   42   48 1   
    47   42   49 1   
    48   43   44 1   
    49   43   45 1   
    50   50   51 1   
    51   50   54 1   
    52   51   52 1   
    53   51   55 1   
    54   51   56 1   
    55   52   53 2   
    56   52   57 1   
    57   57   58 1   
    58   57   65 1   
    59   58   59 1   
    60   58   61 1   
    61   58   66 1   
    62   59   60 2   
    63   59   69 1   
    64   61   62 1   
    65   61   67 1   
    66   61   68 1   
    67   62   63 1   
    68   62   64 1   
    69   69   70 1   
    70   69   73 1   
    71   70   71 1   
    72   70   74 1   
    73   70   75 1   
    74   71   72 2   
    75   71   76 1   
    76   76   77 1   
    77   76   85 1   
    78   77   78 1   
    79   77   80 1   
    80   77   86 1   
    81   78   79 2   
    82   78   93 1   
    83   80   81 1   
    84   80   87 1   
    85   80   88 1   
    86   81   82 1   
    87   81   89 1   
    88   81   90 1   
    89   82   83 1   
    90   82   84 2   
    91   83   91 1   
    92   83   92 1   
    93   93   94 1   
    94   93  100 1   
    95   94   95 1   
    96   94   97 1   
    97   94  101 1   
    98   95   96 2   
    99   95  109 1   
   100   97   98 1   
   101   97   99 1   
   102   97  102 1   
   103   98  103 1   
   104   98  104 1   
   105   98  105 1   
   106   99  106 1   
   107   99  107 1   
   108   99  108 1   
   109  109  110 1   
   110  109  117 1   
   111  110  111 1   
   112  110  113 1   
   113  110  118 1   
   114  111  112 2   
   115  111  123 1   
   116  113  114 1   
   117  113  119 1   
   118  113  120 1   
   119  114  115 1   
   120  114  116 2   
   121  115  121 1   
   122  115  122 1   
   123  123  124 1   
   124  123  135 1   
   125  124  125 1   
   126  124  127 1   
   127  124  136 1   
   128  125  126 2   
   129  125  144 1   
   130  127  128 1   
   131  127  137 1   
   132  127  138 1   
   133  128  129 ar  
   134  128  130 ar  
   135  129  131 ar  
   136  129  139 1   
   137  130  132 ar  
   138  130  140 1   
   139  131  133 ar  
   140  131  141 1   
   141  132  133 ar  
   142  132  142 1   
   143  133  134 1   
   144  134  143 1   
   145  144  145 1   
   146  144  153 1   
   147  145  146 1   
   148  145  148 1   
   149  145  154 1   
   150  146  147 2   
   151  146  159 1   
   152  148  149 1   
   153  148  155 1   
   154  148  156 1   
   155  149  150 1   
   156  149  157 1   
   157  149  158 1   
   158  150  151 1   
   159  150  152 1   
   160  159  160 1   
   161  159  168 1   
   162  160  161 1   
   163  160  163 1   
   164  160  169 1   
   165  161  162 2   
   166  161  174 1   
   167  163  164 1   
   168  163  170 1   
   169  163  171 1   
   170  164  165 1   
   171  164  172 1   
   172  164  173 1   
   173  165  166 1   
   174  165  167 1   
   175  174  175 1   
   176  174  179 1   
   177  175  176 1   
   178  175  177 1   
   179  175  178 1   
   180  181  182 1   
   181  181  183 1   
   182  184  185 1   
   183  184  186 1   
@<TRIPOS>SUBSTRUCTURE
     1 MOL         1 TEMP              0 ****  ****    0 ROOT
