@<TRIPOS>MOLECULE
MOL
  181   177     1     0     0
SMALL
resp


@<TRIPOS>ATOM
      1 C1          1.0120    6.9400   -1.9130 c3        1 MOL     -0.368705
      2 C2          2.3620    6.5220   -1.3310 c         1 MOL      0.708070
      3 O1          2.6860    6.9010   -0.1810 o         1 MOL     -0.589873
      4 H1          0.4630    7.5230   -1.1730 hc        1 MOL      0.090626
      5 H2          1.1710    7.5450   -2.8060 hc        1 MOL      0.090626
      6 H3          0.4370    6.0520   -2.1740 hc        1 MOL      0.090626
      7 N1          3.1560    5.6830   -2.0320 n         1 MOL     -0.663234
      8 C3          4.4640    5.3120   -1.5940 c3        1 MOL      0.339057
      9 C4          4.5440    4.1370   -0.5830 c         1 MOL      0.498979
     10 O2          4.0760    3.0470   -0.9130 o         1 MOL     -0.620497
     11 C5          5.3510    5.1520   -2.7680 c3        1 MOL     -0.179951
     12 C6          6.8230    5.3820   -2.3510 c         1 MOL      0.645115
     13 O3          7.2650    5.2840   -1.1370 o         1 MOL     -0.708510
     14 O4          7.5470    5.7940   -3.2800 o         1 MOL     -0.708510
     15 H4          2.8360    5.3650   -2.9320 hn        1 MOL      0.319346
     16 H5          4.8380    6.1020   -0.9390 h1        1 MOL     -0.008307
     17 H6          5.0840    5.8150   -3.6000 hc        1 MOL      0.012705
     18 H7          5.1220    4.1360   -3.0960 hc        1 MOL      0.012705
     19 N2          5.0740    4.3000    0.6080 n         1 MOL     -0.378868
     20 C7          5.1480    3.3560    1.7010 c3        1 MOL      0.267913
     21 C8          3.7500    3.4260    2.4720 c         1 MOL      0.398610
     22 O5          3.0150    4.4020    2.2360 o         1 MOL     -0.495817
     23 C9          6.3790    3.7290    2.5320 c3        1 MOL     -0.243206
     24 H8          5.2920    5.2640    0.8320 hn        1 MOL      0.262451
     25 H9          5.2400    2.3820    1.2090 h1        1 MOL      0.069750
     26 H10         6.0670    4.5150    3.2130 hc        1 MOL      0.056247
     27 H11         6.6620    2.9350    3.2300 hc        1 MOL      0.056247
     28 H12         7.1240    4.0470    1.7960 hc        1 MOL      0.056247
     29 N3          3.2840    2.5350    3.4150 n         1 MOL     -0.363718
     30 C10         4.0210    1.3470    3.8890 c3        1 MOL     -0.040046
     31 C11         4.2390    0.3180    2.7480 c         1 MOL      0.523339
     32 O6          3.4600    0.1870    1.7810 o         1 MOL     -0.548637
     33 C12         3.2490    0.7340    5.0200 c3        1 MOL     -0.261662
     34 C13         1.7770    0.5680    4.6450 c         1 MOL      0.765020
     35 O7          1.0110    1.5320    4.9410 o         1 MOL     -0.698905
     36 O8          1.5590   -0.4180    3.9360 o         1 MOL     -0.698905
     37 H13         2.3310    2.6930    3.6930 hn        1 MOL      0.254152
     38 H14         4.9630    1.6870    4.3060 h1        1 MOL      0.091504
     39 H15         3.4260    1.2930    5.9400 hc        1 MOL      0.059100
     40 H16         3.6430   -0.2570    5.2510 hc        1 MOL      0.059100
     41 N4          5.3920   -0.2520    2.7910 n         1 MOL     -0.327612
     42 C14         6.0340   -1.1900    1.8930 c3        1 MOL      0.103718
     43 C15         6.7890   -0.6220    0.7360 c         1 MOL      0.389013
     44 O9          7.0520    0.5890    0.6030 o         1 MOL     -0.463951
     45 H17         5.8730    0.0000    3.6450 hn        1 MOL      0.211445
     46 H18         5.2200   -1.7940    1.4790 h1        1 MOL      0.030271
     47 H19         6.6410   -1.8700    2.4850 h1        1 MOL      0.030271
     48 N5          7.3070   -1.4400   -0.2160 n         1 MOL     -0.426798
     49 C16         7.2020   -2.9360   -0.3400 c3        1 MOL      0.077134
     50 C17         5.9380   -3.3810   -1.1520 c         1 MOL      0.498219
     51 O10         5.7250   -4.5800   -1.2420 o         1 MOL     -0.536845
     52 C18         8.5020   -3.4030   -0.9370 c3        1 MOL     -0.227334
     53 C19         8.5690   -3.3630   -2.4650 c         1 MOL      0.684350
     54 N6          8.9850   -4.3990   -3.2230 n         1 MOL     -0.825362
     55 O11         8.2020   -2.3390   -2.9750 o         1 MOL     -0.535867
     56 H20         7.7720   -0.9750   -0.9820 hn        1 MOL      0.292316
     57 H21         7.2020   -3.3620    0.6610 h1        1 MOL      0.083825
     58 H22         8.7350   -4.3900   -0.5300 hc        1 MOL      0.077895
     59 H23         9.2980   -2.7610   -0.5630 hc        1 MOL      0.077895
     60 H24         9.2400   -5.2780   -2.8020 hn        1 MOL      0.380100
     61 H25         8.8300   -4.2380   -4.2040 hn        1 MOL      0.380100
     62 N7          5.1700   -2.4480   -1.7310 n         1 MOL     -0.382670
     63 C20         4.3670   -2.7610   -2.8820 c3        1 MOL     -0.268968
     64 C21         2.9090   -3.2190   -2.4600 c         1 MOL      0.517422
     65 O12         1.9280   -2.8120   -3.1400 o         1 MOL     -0.544710
     66 H26         5.3810   -1.4670   -1.5530 hn        1 MOL      0.346555
     67 H27         4.9200   -3.5780   -3.3560 h1        1 MOL      0.170447
     68 H28         4.3720   -1.8920   -3.5410 h1        1 MOL      0.170447
     69 N8          2.7280   -4.1420   -1.5040 n         1 MOL     -0.365721
     70 C22         1.3860   -4.8300   -1.2870 c3        1 MOL     -0.144116
     71 C23         0.2480   -3.9690   -0.7490 c         1 MOL      0.627820
     72 O13         0.3670   -2.9230   -0.1790 o         1 MOL     -0.670992
     73 C24         1.6740   -5.9450   -0.3050 c3        1 MOL      0.302156
     74 C25         2.5400   -6.9810   -1.1390 c3        1 MOL     -0.383234
     75 O14         2.6150   -5.6090    0.7640 oh        1 MOL     -0.546982
     76 H29         3.5350   -4.4590   -0.9880 hn        1 MOL      0.274017
     77 H30         1.0010   -5.1420   -2.2560 h1        1 MOL      0.140967
     78 H31         0.7370   -6.3470    0.0980 h1        1 MOL      0.044210
     79 H32         2.0140   -5.4080    1.4920 ho        1 MOL      0.364572
     80 H33         2.0840   -7.2270   -2.1040 hc        1 MOL      0.104578
     81 H34         3.5910   -6.6990   -1.2300 hc        1 MOL      0.104578
     82 H35         2.4950   -7.9440   -0.6280 hc        1 MOL      0.104578
     83 N9         -1.0250   -4.3680   -0.9640 n         1 MOL     -0.345985
     84 C26        -2.2590   -3.5450   -0.9060 c3        1 MOL     -0.362734
     85 C27        -2.8340   -3.6010    0.5840 c         1 MOL      0.500552
     86 O15        -3.0440   -4.6580    1.1190 o         1 MOL     -0.564367
     87 C28        -3.1940   -3.8300   -2.1020 c3        1 MOL      0.353665
     88 C29        -4.4020   -2.9270   -1.9170 c3        1 MOL      0.030737
     89 C30        -2.5670   -3.7850   -3.5420 c3        1 MOL     -0.273828
     90 C31        -5.5590   -3.2120   -2.9490 c3        1 MOL     -0.312946
     91 H36        -1.0260   -5.2640   -1.4520 hn        1 MOL      0.222923
     92 H37        -1.9550   -2.5090   -1.1060 h1        1 MOL      0.271513
     93 H38        -3.4950   -4.8830   -2.1080 hc        1 MOL     -0.044261
     94 H39        -4.0640   -1.9040   -2.0550 hc        1 MOL      0.018379
     95 H40        -4.7440   -3.1870   -0.9100 hc        1 MOL      0.018379
     96 H41        -2.2590   -2.7580   -3.7530 hc        1 MOL      0.051431
     97 H42        -1.7140   -4.4600   -3.5260 hc        1 MOL      0.051431
     98 H43        -3.2700   -4.1400   -4.2880 hc        1 MOL      0.051431
     99 H44        -5.8680   -4.2330   -2.7140 hc        1 MOL      0.061627
    100 H45        -6.3570   -2.5070   -2.7360 hc        1 MOL      0.061627
    101 H46        -5.1820   -3.1360   -3.9710 hc        1 MOL      0.061627
    102 N10        -3.1710   -2.4900    1.0850 n         1 MOL     -0.068070
    103 C32        -3.8520   -2.4000    2.4090 c3        1 MOL     -0.007663
    104 C33        -5.2250   -1.7090    2.4090 c         1 MOL      0.481836
    105 O16        -6.1510   -2.0980    3.1630 o         1 MOL     -0.551729
    106 C34        -2.9550   -1.7210    3.4490 c3        1 MOL     -0.066940
    107 C35        -1.7060   -2.5290    3.5390 c         1 MOL      0.746134
    108 O17        -0.6780   -2.2970    2.8900 o         1 MOL     -0.733214
    109 O18        -1.6550   -3.4350    4.4060 o         1 MOL     -0.733214
    110 H47        -3.0660   -1.6070    0.6090 hn        1 MOL      0.099279
    111 H48        -4.0730   -3.4160    2.7600 h1        1 MOL      0.080597
    112 H49        -3.4300   -1.9120    4.4040 hc        1 MOL      0.008032
    113 H50        -2.7210   -0.6860    3.1650 hc        1 MOL      0.008032
    114 N11        -5.4080   -0.8140    1.4220 n         1 MOL     -0.578901
    115 C36        -6.6090   -0.0810    1.0860 c3        1 MOL      0.521807
    116 C37        -6.3040    1.2910    0.3780 c         1 MOL      0.116853
    117 O19        -6.8710    1.5090   -0.6490 o         1 MOL     -0.393762
    118 C38        -7.7210   -0.8920    0.3940 c3        1 MOL     -0.404649
    119 C39        -9.0820   -0.3150    0.2730 ca        1 MOL      0.089593
    120 C40        -9.5810    0.5820    1.2330 ca        1 MOL     -0.093582
    121 C41        -9.8900   -0.6770   -0.8190 ca        1 MOL     -0.093582
    122 C42       -10.8640    1.1310    1.1280 ca        1 MOL     -0.146453
    123 C43       -11.2330   -0.2380   -0.8440 ca        1 MOL     -0.146453
    124 C44       -11.7280    0.6920    0.0990 ca        1 MOL     -0.143003
    125 H51        -4.6530   -0.6920    0.7600 hn        1 MOL      0.218437
    126 H52        -6.9700    0.1690    2.0880 h1        1 MOL     -0.010039
    127 H53        -7.6800   -1.8280    0.9440 hc        1 MOL      0.140729
    128 H54        -7.3420   -1.1450   -0.5990 hc        1 MOL      0.140729
    129 H55        -8.9360    0.8920    2.0330 ha        1 MOL      0.096352
    130 H56        -9.6760   -1.4610   -1.5300 ha        1 MOL      0.096352
    131 H57       -11.1850    1.9190    1.8040 ha        1 MOL      0.105372
    132 H58       -11.9200   -0.7260   -1.5290 ha        1 MOL      0.105372
    133 H59       -12.7160    1.1200   -0.0200 ha        1 MOL      0.105446
    134 N12        -5.2860    2.0120    0.9170 n         1 MOL      0.081984
    135 C45        -5.0480    3.3680    0.3980 c3        1 MOL     -0.052574
    136 C46        -4.6980    3.4840   -1.1030 c         1 MOL      0.254717
    137 O20        -4.9840    4.5520   -1.6670 o         1 MOL     -0.471847
    138 C47        -3.8500    3.8550    1.1100 c3        1 MOL     -0.116924
    139 C48        -4.0400    3.2950    2.5190 c3        1 MOL     -0.055387
    140 C49        -4.6740    1.9210    2.2010 c3        1 MOL     -0.046560
    141 H60        -5.8280    4.0540    0.7220 h1        1 MOL      0.099039
    142 H61        -2.8660    3.5060    0.8020 hc        1 MOL      0.082490
    143 H62        -3.9980    4.9300    1.0000 hc        1 MOL      0.082490
    144 H63        -3.1180    3.2030    3.1020 hc        1 MOL      0.019945
    145 H64        -4.7790    3.9660    2.9770 hc        1 MOL      0.019945
    146 H65        -3.8250    1.2310    2.1780 h1        1 MOL      0.057351
    147 H66        -5.3970    1.6650    2.9790 h1        1 MOL      0.057351
    148 N13        -3.9670    2.4690   -1.6300 n         1 MOL     -0.218423
    149 C50        -3.7190    2.1520   -3.0450 c3        1 MOL     -0.041142
    150 C51        -4.9840    2.2020   -3.9000 c         1 MOL      0.518388
    151 O21        -4.8600    2.6750   -5.0570 o         1 MOL     -0.593479
    152 C52        -2.9930    0.8230   -3.2010 c3        1 MOL      0.038114
    153 C53        -1.8140    0.4380   -2.2400 c3        1 MOL     -0.077572
    154 C54        -2.2290    0.0470   -0.8300 c         1 MOL      0.615277
    155 O22        -1.3940   -0.1530    0.0820 o         1 MOL     -0.640707
    156 O23        -3.4670   -0.0660   -0.6360 o         1 MOL     -0.640707
    157 H67        -3.5940    1.7880   -0.9830 hn        1 MOL      0.244929
    158 H68        -3.0850    2.9040   -3.5250 h1        1 MOL      0.075156
    159 H69        -2.6520    0.8340   -4.2390 hc        1 MOL     -0.010448
    160 H70        -3.7590    0.0550   -3.1280 hc        1 MOL     -0.010448
    161 H71        -1.2020    1.3400   -2.1970 hc        1 MOL      0.028098
    162 H72        -1.1230   -0.3020   -2.6290 hc        1 MOL      0.028098
    163 N14        -6.1290    1.7290   -3.4700 n         1 MOL     -0.208186
    164 C55        -7.4370    1.9920   -4.1160 c3        1 MOL     -0.205950
    165 H73        -8.0760    2.5460   -3.4290 h1        1 MOL      0.091889
    166 H74        -7.2840    2.5770   -5.0220 h1        1 MOL      0.091889
    167 H75        -7.9140    1.0460   -4.3710 h1        1 MOL      0.091889
    168 H76        -6.1570    1.2140   -2.5970 hn        1 MOL      0.229237
    169 Ca1         0.7170   -0.6940    1.4290 Ca        1 MOL      1.746816
    170 O24         1.5550    1.9660    0.4230 oh        1 MOL     -0.878231
    171 H77         2.2500    1.7400   -0.1880 ho        1 MOL      0.427421
    172 H78         1.7240    2.8800    0.6600 ho        1 MOL      0.427421
    173 O25         1.5610   -0.5770   -1.1210 oh        1 MOL     -0.878231
    174 H79         1.4210   -1.2890   -1.7420 ho        1 MOL      0.427421
    175 H80         2.3970   -0.1780   -1.3960 ho        1 MOL      0.427421
    176 O26        -0.5400    1.5540    2.9190 oh        1 MOL     -0.878231
    177 H81        -0.6520    2.5070    2.9860 ho        1 MOL      0.427421
    178 H82        -0.0080    1.3300    3.6850 ho        1 MOL      0.427421
    179 O27         2.5610   -2.6100    1.8100 oh        1 MOL     -0.878231
    180 H83         2.1780   -3.3480    1.3400 ho        1 MOL      0.427421
    181 H84         3.2230   -3.0060    2.3860 ho        1 MOL      0.427421
@<TRIPOS>BOND
     1    1    2 1   
     2    1    4 1   
     3    1    5 1   
     4    1    6 1   
     5    2    3 2   
     6    2    7 1   
     7    7    8 1   
     8    7   15 1   
     9    8    9 1   
    10    8   11 1   
    11    8   16 1   
    12    9   10 2   
    13    9   19 1   
    14   11   12 1   
    15   11   17 1   
    16   11   18 1   
    17   12   13 1   
    18   12   14 1   
    19   19   20 1   
    20   19   24 1   
    21   20   21 1   
    22   20   23 1   
    23   20   25 1   
    24   21   22 2   
    25   21   29 1   
    26   23   26 1   
    27   23   27 1   
    28   23   28 1   
    29   29   30 1   
    30   29   37 1   
    31   30   31 1   
    32   30   33 1   
    33   30   38 1   
    34   31   32 2   
    35   31   41 1   
    36   33   34 1   
    37   33   39 1   
    38   33   40 1   
    39   34   35 1   
    40   34   36 1   
    41   41   42 1   
    42   41   45 1   
    43   42   43 1   
    44   42   46 1   
    45   42   47 1   
    46   43   44 2   
    47   43   48 1   
    48   48   49 1   
    49   48   56 1   
    50   49   50 1   
    51   49   52 1   
    52   49   57 1   
    53   50   51 2   
    54   50   62 1   
    55   52   53 1   
    56   52   58 1   
    57   52   59 1   
    58   53   54 1   
    59   53   55 2   
    60   54   60 1   
    61   54   61 1   
    62   62   63 1   
    63   62   66 1   
    64   63   64 1   
    65   63   67 1   
    66   63   68 1   
    67   64   65 2   
    68   64   69 1   
    69   69   70 1   
    70   69   76 1   
    71   70   71 1   
    72   70   73 1   
    73   70   77 1   
    74   71   72 2   
    75   71   83 1   
    76   73   74 1   
    77   73   75 1   
    78   73   78 1   
    79   74   80 1   
    80   74   81 1   
    81   74   82 1   
    82   75   79 1   
    83   83   84 1   
    84   83   91 1   
    85   84   85 1   
    86   84   87 1   
    87   84   92 1   
    88   85   86 2   
    89   85  102 1   
    90   87   88 1   
    91   87   89 1   
    92   87   93 1   
    93   88   90 1   
    94   88   94 1   
    95   88   95 1   
    96   89   96 1   
    97   89   97 1   
    98   89   98 1   
    99   90   99 1   
   100   90  100 1   
   101   90  101 1   
   102  102  103 1   
   103  102  110 1   
   104  103  104 1   
   105  103  106 1   
   106  103  111 1   
   107  104  105 2   
   108  104  114 1   
   109  106  107 1   
   110  106  112 1   
   111  106  113 1   
   112  107  108 1   
   113  107  109 1   
   114  114  115 1   
   115  114  125 1   
   116  115  116 1   
   117  115  118 1   
   118  115  126 1   
   119  116  117 2   
   120  116  134 1   
   121  118  119 1   
   122  118  127 1   
   123  118  128 1   
   124  119  120 ar  
   125  119  121 ar  
   126  120  122 ar  
   127  120  129 1   
   128  121  123 ar  
   129  121  130 1   
   130  122  124 ar  
   131  122  131 1   
   132  123  124 ar  
   133  123  132 1   
   134  124  133 1   
   135  134  135 1   
   136  134  140 1   
   137  135  136 1   
   138  135  138 1   
   139  135  141 1   
   140  136  137 2   
   141  136  148 1   
   142  138  139 1   
   143  138  142 1   
   144  138  143 1   
   145  139  140 1   
   146  139  144 1   
   147  139  145 1   
   148  140  146 1   
   149  140  147 1   
   150  148  149 1   
   151  148  157 1   
   152  149  150 1   
   153  149  152 1   
   154  149  158 1   
   155  150  151 2   
   156  150  163 1   
   157  152  153 1   
   158  152  159 1   
   159  152  160 1   
   160  153  154 1   
   161  153  161 1   
   162  153  162 1   
   163  154  155 1   
   164  154  156 1   
   165  163  164 1   
   166  163  168 1   
   167  164  165 1   
   168  164  166 1   
   169  164  167 1   
   170  170  171 1   
   171  170  172 1   
   172  173  174 1   
   173  173  175 1   
   174  176  177 1   
   175  176  178 1   
   176  179  180 1   
   177  179  181 1   
@<TRIPOS>SUBSTRUCTURE
     1 MOL         1 TEMP              0 ****  ****    0 ROOT
