@<TRIPOS>MOLECULE
MOL
  178   175     1     0     0
SMALL
resp


@<TRIPOS>ATOM
      1 C1         -2.5680   -2.1090   -4.2700 c3        1 MOL     -0.369759
      2 C2         -3.9760   -1.6540   -3.7480 c         1 MOL      0.558991
      3 O1         -4.3770   -0.4760   -3.7630 o         1 MOL     -0.594661
      4 H1         -2.5620   -3.1920   -4.3990 hc        1 MOL      0.095265
      5 H2         -2.3620   -1.6290   -5.2260 hc        1 MOL      0.095265
      6 H3         -1.8040   -1.8250   -3.5470 hc        1 MOL      0.095265
      7 N1         -4.7320   -2.5980   -3.2320 n         1 MOL     -0.341492
      8 C3         -6.0730   -2.5180   -2.6880 c3        1 MOL      0.225637
      9 C4         -6.0480   -2.6720   -1.1090 c         1 MOL      0.582730
     10 O2         -5.0470   -3.0910   -0.5230 o         1 MOL     -0.638053
     11 C5         -6.9480   -3.6330   -3.3340 c3        1 MOL     -0.328726
     12 C6         -6.3400   -5.0820   -3.3640 c         1 MOL      0.683379
     13 O3         -5.6320   -5.4500   -2.4080 o         1 MOL     -0.680960
     14 O4         -6.4190   -5.7100   -4.4630 o         1 MOL     -0.680960
     15 H4         -4.4010   -3.5430   -3.3420 hn        1 MOL      0.260908
     16 H5         -6.4930   -1.5240   -2.8920 h1        1 MOL     -0.005561
     17 H6         -7.0510   -3.2580   -4.3500 hc        1 MOL      0.042488
     18 H7         -7.9270   -3.6300   -2.8490 hc        1 MOL      0.042488
     19 N2         -7.1060   -2.1780   -0.5370 n         1 MOL     -0.512668
     20 C7         -7.1570   -1.7450    0.8470 c3        1 MOL      0.267387
     21 C8         -6.0380   -0.8010    1.2440 c         1 MOL      0.579799
     22 O5         -5.5600   -0.0890    0.3610 o         1 MOL     -0.564759
     23 C9         -8.5020   -1.1350    1.2460 c3        1 MOL     -0.278727
     24 H8         -7.8810   -1.7840   -1.0610 hn        1 MOL      0.291794
     25 H9         -7.0300   -2.6710    1.4180 h1        1 MOL      0.002584
     26 H10        -8.6630   -0.1300    0.8640 hc        1 MOL      0.072674
     27 H11        -9.2860   -1.7300    0.7690 hc        1 MOL      0.072674
     28 H12        -8.6500   -1.1400    2.3310 hc        1 MOL      0.072674
     29 N3         -5.5350   -0.7940    2.5010 n         1 MOL     -0.654683
     30 C10        -4.3620   -0.0650    2.9970 c3        1 MOL     -0.017438
     31 C11        -4.8830    1.1140    3.7500 c         1 MOL      0.744973
     32 O6         -5.8540    0.9130    4.4820 o         1 MOL     -0.543419
     33 C12        -3.4620   -0.8460    3.9300 c3        1 MOL     -0.289647
     34 C13        -3.3170   -2.2970    3.5830 c         1 MOL      0.776378
     35 O7         -3.4230   -3.2210    4.4500 o         1 MOL     -0.708909
     36 O8         -2.8220   -2.5700    2.4740 o         1 MOL     -0.708909
     37 H13        -5.9920   -1.4310    3.1280 hn        1 MOL      0.348188
     38 H14        -3.7220    0.0640    2.1290 h1        1 MOL      0.092363
     39 H15        -3.9710   -0.7470    4.8910 hc        1 MOL      0.061281
     40 H16        -2.4600   -0.4240    3.8970 hc        1 MOL      0.061281
     41 N4         -4.1960    2.2900    3.6410 n         1 MOL     -0.469965
     42 C14        -4.6060    3.5290    4.2970 c3        1 MOL     -0.085602
     43 C15        -4.0580    4.7680    3.6880 c         1 MOL      0.765407
     44 O9         -4.6910    5.8060    3.8420 o         1 MOL     -0.572645
     45 H17        -3.3430    2.2910    3.1010 hn        1 MOL      0.222802
     46 H18        -4.1930    3.4300    5.3040 h1        1 MOL      0.059075
     47 H19        -5.6910    3.5760    4.3700 h1        1 MOL      0.059075
     48 N5         -2.9290    4.7300    2.9320 n         1 MOL     -0.717071
     49 C16        -2.4230    5.9970    2.2720 c3        1 MOL      0.375885
     50 C17        -2.3350    5.8750    0.7570 c         1 MOL      0.450386
     51 O10        -2.2650    4.7610    0.2590 o         1 MOL     -0.456361
     52 C18        -1.0950    6.5210    2.7860 c3        1 MOL     -0.425142
     53 C19        -1.2680    6.9380    4.2420 c         1 MOL      0.663017
     54 N6         -0.4700    6.4230    5.1330 n         1 MOL     -0.777645
     55 O11        -2.0370    7.8220    4.6330 o         1 MOL     -0.560242
     56 H20        -2.3170    3.9360    3.0850 hn        1 MOL      0.385786
     57 H21        -3.0830    6.8610    2.3820 h1        1 MOL     -0.004887
     58 H22        -0.9250    7.4130    2.1790 hc        1 MOL      0.122816
     59 H23        -0.3120    5.7740    2.7640 hc        1 MOL      0.122816
     60 H24         0.3550    5.8840    4.8990 hn        1 MOL      0.361836
     61 H25        -0.6050    6.8290    6.0440 hn        1 MOL      0.361836
     62 N7         -2.2350    6.9750   -0.0010 n         1 MOL     -0.399839
     63 C20        -1.7550    7.0240   -1.3840 c3        1 MOL     -0.273457
     64 C21        -0.2570    6.6630   -1.5110 c         1 MOL      0.721102
     65 O12         0.3980    6.1940   -0.5640 o         1 MOL     -0.523495
     66 H26        -2.3030    7.8260    0.5340 hn        1 MOL      0.292017
     67 H27        -1.7550    8.0870   -1.6470 h1        1 MOL      0.135084
     68 H28        -2.3730    6.3700   -1.9920 h1        1 MOL      0.135084
     69 N8          0.4120    7.0780   -2.5730 n         1 MOL     -0.485303
     70 C22         1.9080    7.0920   -2.6180 c3        1 MOL     -0.338855
     71 C23         2.5250    5.6720   -2.6990 c         1 MOL      0.681023
     72 O13         3.7180    5.6990   -2.5010 o         1 MOL     -0.574633
     73 C24         2.4840    8.0150   -3.7020 c3        1 MOL      0.712411
     74 C25         2.3420    7.3810   -5.0940 c3        1 MOL     -0.622167
     75 O14         1.9490    9.2680   -3.6060 oh        1 MOL     -0.667132
     76 H29        -0.1830    7.5550   -3.2490 hn        1 MOL      0.246128
     77 H30         2.3540    7.4280   -1.6740 h1        1 MOL      0.148988
     78 H31         3.5120    8.1440   -3.3480 h1        1 MOL     -0.034207
     79 H32         1.0250    9.1290   -3.4000 ho        1 MOL      0.382101
     80 H33         1.3300    6.9900   -5.1960 hc        1 MOL      0.146512
     81 H34         2.5730    8.1850   -5.8080 hc        1 MOL      0.146512
     82 H35         3.1860    6.6970   -5.2190 hc        1 MOL      0.146512
     83 N9          1.8620    4.5120   -2.9600 n         1 MOL     -0.464568
     84 C26         2.4240    3.1250   -3.0570 c3        1 MOL      0.141367
     85 C27         1.7000    2.1760   -2.1300 c         1 MOL      0.539444
     86 O15         0.4670    2.3960   -1.9990 o         1 MOL     -0.504486
     87 C28         2.4240    2.7000   -4.5140 c3        1 MOL      0.074012
     88 C29         3.3880    3.4860   -5.4190 c3        1 MOL     -0.032704
     89 C30         2.6710    1.2380   -4.7210 c3        1 MOL     -0.122125
     90 C31         4.8720    3.3200   -5.0550 c3        1 MOL     -0.069217
     91 H36         0.9120    4.5300   -3.2970 hn        1 MOL      0.246715
     92 H37         3.4410    3.1990   -2.6780 h1        1 MOL      0.027615
     93 H38         1.4840    2.9760   -4.9830 hc        1 MOL      0.008579
     94 H39         3.2430    4.5600   -5.3640 hc        1 MOL      0.014272
     95 H40         3.2770    3.1500   -6.4520 hc        1 MOL      0.014272
     96 H41         3.5650    0.8720   -4.2180 hc        1 MOL      0.034080
     97 H42         1.8240    0.6900   -4.2900 hc        1 MOL      0.034080
     98 H43         2.8140    0.9510   -5.7630 hc        1 MOL      0.034080
     99 H44         5.5020    3.8570   -5.7650 hc        1 MOL      0.007930
    100 H45         5.0550    3.7900   -4.0850 hc        1 MOL      0.007930
    101 H46         5.1360    2.2720   -4.9570 hc        1 MOL      0.007930
    102 N10         2.3780    1.1820   -1.5550 n         1 MOL     -0.596342
    103 C32         1.7820    0.1350   -0.6370 c3        1 MOL      0.132961
    104 C33         2.7280   -0.4780    0.4340 c         1 MOL      0.458211
    105 O16         2.5030   -1.6090    0.9300 o         1 MOL     -0.379386
    106 C34         1.1440   -0.9290   -1.5710 c3        1 MOL      0.102617
    107 C35         0.0830   -1.8490   -1.0160 c         1 MOL      0.611999
    108 O17        -0.1870   -1.6790    0.1800 o         1 MOL     -0.726889
    109 O18        -0.3970   -2.8400   -1.6370 o         1 MOL     -0.726889
    110 H47         3.3440    1.0720   -1.8120 hn        1 MOL      0.316999
    111 H48         1.0380    0.6700   -0.0540 h1        1 MOL      0.091323
    112 H49         1.9780   -1.5000   -1.9840 hc        1 MOL     -0.014971
    113 H50         0.7340   -0.4690   -2.4800 hc        1 MOL     -0.014971
    114 N11         3.7990    0.2280    0.7940 n         1 MOL     -0.467492
    115 C36         4.7890   -0.2930    1.7030 c3        1 MOL      0.218728
    116 C37         5.4190   -1.5840    1.1740 c         1 MOL      0.175595
    117 O19         5.8080   -1.7380   -0.0030 o         1 MOL     -0.516321
    118 C38         5.9140    0.6540    2.0680 c3        1 MOL     -0.229496
    119 C39         6.9010    0.1060    2.9970 ca        1 MOL      0.047506
    120 C40         8.0690   -0.5280    2.5180 ca        1 MOL     -0.107342
    121 C41         6.8070    0.2940    4.3870 ca        1 MOL     -0.107342
    122 C42         9.0170   -1.0670    3.4210 ca        1 MOL     -0.178771
    123 C43         7.6830   -0.3530    5.2750 ca        1 MOL     -0.178771
    124 C44         8.8360   -0.9960    4.7640 ca        1 MOL     -0.051044
    125 H51         4.0630    1.0490    0.2690 hn        1 MOL      0.251371
    126 H52         4.2330   -0.4780    2.6240 h1        1 MOL      0.021521
    127 H53         5.6450    1.6460    2.4370 hc        1 MOL      0.095320
    128 H54         6.4180    0.9250    1.1390 hc        1 MOL      0.095320
    129 H55         8.3260   -0.5590    1.4670 ha        1 MOL      0.106968
    130 H56         6.0330    0.8440    4.9030 ha        1 MOL      0.106968
    131 H57         9.8000   -1.5840    2.8910 ha        1 MOL      0.126290
    132 H58         7.4870   -0.4650    6.3370 ha        1 MOL      0.126290
    133 H59         9.5190   -1.4080    5.4930 ha        1 MOL      0.086721
    134 N12         5.4150   -2.7110    1.9340 n         1 MOL      0.418197
    135 C45         6.2000   -3.8480    1.6130 c3        1 MOL     -0.335211
    136 C46         5.5400   -4.7210    0.4680 c         1 MOL      0.666002
    137 O20         6.2240   -5.4320   -0.1790 o         1 MOL     -0.587601
    138 C47         6.1800   -4.7100    2.9020 c3        1 MOL     -0.009966
    139 C48         4.8240   -4.3490    3.6120 c3        1 MOL      0.041955
    140 C49         4.7640   -2.8370    3.2780 c3        1 MOL     -0.222018
    141 H60         7.2640   -3.6600    1.4590 h1        1 MOL      0.107076
    142 H61         6.1660   -5.8010    2.7740 hc        1 MOL      0.007885
    143 H62         6.8920   -4.3600    3.6340 hc        1 MOL      0.007885
    144 H63         4.1090   -5.0320    3.1680 hc        1 MOL      0.021831
    145 H64         4.9070   -4.5200    4.6930 hc        1 MOL      0.021831
    146 H65         3.7460   -2.4570    3.2130 h1        1 MOL      0.069775
    147 H66         5.3020   -2.2750    4.0510 h1        1 MOL      0.069775
    148 N13         4.2570   -4.4560    0.1970 n         1 MOL     -0.236789
    149 C50         3.5550   -5.2270   -0.8630 c3        1 MOL     -0.426800
    150 C51         3.9220   -4.8970   -2.3770 c         1 MOL      0.480563
    151 O21         3.4440   -5.5990   -3.3110 o         1 MOL     -0.530053
    152 C52         2.0580   -5.1840   -0.5780 c3        1 MOL      0.300756
    153 C53         1.4040   -5.7230    0.7190 c3        1 MOL     -0.097564
    154 C54        -0.1400   -5.4600    0.7010 c         1 MOL      0.651369
    155 O22        -0.8300   -5.7640   -0.2920 o         1 MOL     -0.717252
    156 O23        -0.5520   -4.7350    1.6370 o         1 MOL     -0.717252
    157 H67         3.7060   -3.8320    0.7720 hn        1 MOL      0.142152
    158 H68         3.8300   -6.2760   -0.7170 h1        1 MOL      0.158520
    159 H69         1.6150   -5.6960   -1.4340 hc        1 MOL     -0.002028
    160 H70         1.7010   -4.1810   -0.8120 hc        1 MOL     -0.002028
    161 H71         1.8830   -5.4400    1.6500 hc        1 MOL     -0.021682
    162 H72         1.5370   -6.7880    0.5400 hc        1 MOL     -0.021682
    163 N14         4.7410   -3.8870   -2.6820 n         1 MOL     -0.101812
    164 C55         5.1600   -3.4700   -4.0430 c3        1 MOL     -0.350395
    165 H73         5.7970   -4.2400   -4.4780 h1        1 MOL      0.125546
    166 H74         4.2790   -3.3310   -4.6690 h1        1 MOL      0.125546
    167 H75         5.7140   -2.5330   -3.9820 h1        1 MOL      0.125546
    168 H76         5.1580   -3.4670   -1.8590 hn        1 MOL      0.176547
    169 Ca1        -2.2780   -3.4360    0.0550 Ca        1 MOL      1.804449
    170 O24        -2.9870   -0.8320   -0.6210 oh        1 MOL     -0.862206
    171 H77        -3.9020   -0.5840   -0.5320 ho        1 MOL      0.417494
    172 H78        -2.5090    0.0000   -0.5660 ho        1 MOL      0.417494
    173 O25        -4.2640   -5.0870    0.9250 oh        1 MOL     -0.862206
    174 H79        -4.5660   -5.2800    1.8070 ho        1 MOL      0.417494
    175 H80        -5.0570   -4.8330    0.4470 ho        1 MOL      0.417494
    176 O26        -3.1760   -4.7900   -2.2510 oh        1 MOL     -0.862206
    177 H81        -2.8050   -5.4190   -2.8620 ho        1 MOL      0.417494
    178 H82        -4.1140   -4.9820   -2.2520 ho        1 MOL      0.417494
@<TRIPOS>BOND
     1    1    2 1   
     2    1    4 1   
     3    1    5 1   
     4    1    6 1   
     5    2    3 2   
     6    2    7 1   
     7    7    8 1   
     8    7   15 1   
     9    8    9 1   
    10    8   11 1   
    11    8   16 1   
    12    9   10 2   
    13    9   19 1   
    14   11   12 1   
    15   11   17 1   
    16   11   18 1   
    17   12   13 1   
    18   12   14 1   
    19   19   20 1   
    20   19   24 1   
    21   20   21 1   
    22   20   23 1   
    23   20   25 1   
    24   21   22 2   
    25   21   29 1   
    26   23   26 1   
    27   23   27 1   
    28   23   28 1   
    29   29   30 1   
    30   29   37 1   
    31   30   31 1   
    32   30   33 1   
    33   30   38 1   
    34   31   32 2   
    35   31   41 1   
    36   33   34 1   
    37   33   39 1   
    38   33   40 1   
    39   34   35 1   
    40   34   36 1   
    41   41   42 1   
    42   41   45 1   
    43   42   43 1   
    44   42   46 1   
    45   42   47 1   
    46   43   44 2   
    47   43   48 1   
    48   48   49 1   
    49   48   56 1   
    50   49   50 1   
    51   49   52 1   
    52   49   57 1   
    53   50   51 2   
    54   50   62 1   
    55   52   53 1   
    56   52   58 1   
    57   52   59 1   
    58   53   54 1   
    59   53   55 2   
    60   54   60 1   
    61   54   61 1   
    62   62   63 1   
    63   62   66 1   
    64   63   64 1   
    65   63   67 1   
    66   63   68 1   
    67   64   65 2   
    68   64   69 1   
    69   69   70 1   
    70   69   76 1   
    71   70   71 1   
    72   70   73 1   
    73   70   77 1   
    74   71   72 2   
    75   71   83 1   
    76   73   74 1   
    77   73   75 1   
    78   73   78 1   
    79   74   80 1   
    80   74   81 1   
    81   74   82 1   
    82   75   79 1   
    83   83   84 1   
    84   83   91 1   
    85   84   85 1   
    86   84   87 1   
    87   84   92 1   
    88   85   86 2   
    89   85  102 1   
    90   87   88 1   
    91   87   89 1   
    92   87   93 1   
    93   88   90 1   
    94   88   94 1   
    95   88   95 1   
    96   89   96 1   
    97   89   97 1   
    98   89   98 1   
    99   90   99 1   
   100   90  100 1   
   101   90  101 1   
   102  102  103 1   
   103  102  110 1   
   104  103  104 1   
   105  103  106 1   
   106  103  111 1   
   107  104  105 2   
   108  104  114 1   
   109  106  107 1   
   110  106  112 1   
   111  106  113 1   
   112  107  108 1   
   113  107  109 1   
   114  114  115 1   
   115  114  125 1   
   116  115  116 1   
   117  115  118 1   
   118  115  126 1   
   119  116  117 2   
   120  116  134 1   
   121  118  119 1   
   122  118  127 1   
   123  118  128 1   
   124  119  120 ar  
   125  119  121 ar  
   126  120  122 ar  
   127  120  129 1   
   128  121  123 ar  
   129  121  130 1   
   130  122  124 ar  
   131  122  131 1   
   132  123  124 ar  
   133  123  132 1   
   134  124  133 1   
   135  134  135 1   
   136  134  140 1   
   137  135  136 1   
   138  135  138 1   
   139  135  141 1   
   140  136  137 2   
   141  136  148 1   
   142  138  139 1   
   143  138  142 1   
   144  138  143 1   
   145  139  140 1   
   146  139  144 1   
   147  139  145 1   
   148  140  146 1   
   149  140  147 1   
   150  148  149 1   
   151  148  157 1   
   152  149  150 1   
   153  149  152 1   
   154  149  158 1   
   155  150  151 2   
   156  150  163 1   
   157  152  153 1   
   158  152  159 1   
   159  152  160 1   
   160  153  154 1   
   161  153  161 1   
   162  153  162 1   
   163  154  155 1   
   164  154  156 1   
   165  163  164 1   
   166  163  168 1   
   167  164  165 1   
   168  164  166 1   
   169  164  167 1   
   170  170  171 1   
   171  170  172 1   
   172  173  174 1   
   173  173  175 1   
   174  176  177 1   
   175  176  178 1   
@<TRIPOS>SUBSTRUCTURE
     1 MOL         1 TEMP              0 ****  ****    0 ROOT
