@<TRIPOS>MOLECULE
MOL
  201   193     1     0     0
SMALL
resp


@<TRIPOS>ATOM
      1 C1         -3.6540    4.2260    4.0650 c3        1 MOL     -0.024363
      2 C2         -4.8040    3.1370    4.0180 c         1 MOL      0.536104
      3 O1         -5.0070    2.3570    4.9620 o         1 MOL     -0.574240
      4 H1         -2.8500    3.8770    4.7130 hc        1 MOL      0.001297
      5 H2         -3.2660    4.3890    3.0590 hc        1 MOL      0.001297
      6 H3         -4.0540    5.1610    4.4560 hc        1 MOL      0.001297
      7 N1         -5.6970    3.2540    3.0860 n         1 MOL     -0.286725
      8 C3         -6.7690    2.1950    2.8190 c3        1 MOL      0.017737
      9 C4         -6.3140    0.9770    1.8610 c         1 MOL      0.424701
     10 O2         -5.1760    0.8980    1.4710 o         1 MOL     -0.548031
     11 C5         -8.0370    2.8650    2.4030 c3        1 MOL     -0.345422
     12 C6         -7.9200    3.7470    1.1690 c         1 MOL      0.888745
     13 O3         -8.5540    4.7700    1.0580 o         1 MOL     -0.733731
     14 O4         -7.1930    3.3960    0.1960 o         1 MOL     -0.733731
     15 H4         -5.4640    3.8550    2.3060 hn        1 MOL      0.145430
     16 H5         -6.9630    1.5900    3.7050 h1        1 MOL      0.108882
     17 H6         -8.5260    3.4260    3.1930 hc        1 MOL      0.100274
     18 H7         -8.7790    2.0910    2.1480 hc        1 MOL      0.100274
     19 N2         -7.2160   -0.0030    1.6730 n         1 MOL     -0.434739
     20 C7         -7.0400   -1.0890    0.7710 c3        1 MOL      0.197296
     21 C8         -8.1580   -1.1950   -0.2440 c         1 MOL      0.360339
     22 O5         -9.2170   -1.7590    0.0380 o         1 MOL     -0.526581
     23 C9         -6.8010   -2.4400    1.5570 c3        1 MOL     -0.192553
     24 C10        -5.6270   -2.5980    2.4810 c3        1 MOL     -0.178842
     25 C11        -5.5800   -4.0390    2.9720 c3        1 MOL     -0.253736
     26 C12        -4.4170   -4.5910    3.7860 c3        1 MOL      0.091984
     27 N3         -3.2590   -4.8190    2.8940 n4        1 MOL     -0.434723
     28 H8         -8.0640   -0.0290    2.2190 hn        1 MOL      0.307003
     29 H9         -6.1580   -0.8770    0.1600 h1        1 MOL     -0.025881
     30 H10        -6.8140   -3.2180    0.7970 hc        1 MOL      0.073817
     31 H11        -7.7680   -2.6060    2.0480 hc        1 MOL      0.073817
     32 H12        -5.7860   -1.8870    3.2920 hc        1 MOL      0.128432
     33 H13        -4.7470   -2.2430    1.9570 hc        1 MOL      0.128432
     34 H14        -5.6810   -4.6900    2.1010 hc        1 MOL      0.122507
     35 H15        -6.4460   -4.1800    3.6130 hc        1 MOL      0.122507
     36 H16        -4.7040   -5.5370    4.2320 hx        1 MOL      0.071255
     37 H17        -4.1810   -3.8640    4.5720 hx        1 MOL      0.071255
     38 H18        -2.9210   -3.9120    2.6290 hn        1 MOL      0.340157
     39 H19        -2.4960   -5.3220    3.3220 hn        1 MOL      0.340157
     40 H20        -3.5310   -5.4230    2.1230 hn        1 MOL      0.340157
     41 N4         -7.9300   -0.5830   -1.4050 n         1 MOL     -0.345167
     42 C13        -8.9790   -0.2070   -2.3570 c3        1 MOL      0.540191
     43 C14        -8.5830   -0.6160   -3.7900 c         1 MOL      0.205738
     44 O6         -7.9310    0.0420   -4.6100 o         1 MOL     -0.426414
     45 C15        -9.2730    1.2890   -2.3440 c3        1 MOL     -0.806720
     46 C16        -8.0490    2.1980   -2.4730 c         1 MOL      0.877573
     47 O7         -8.2120    3.4740   -2.5820 o         1 MOL     -0.739351
     48 O8         -6.8460    1.8260   -2.5600 o         1 MOL     -0.739351
     49 H21        -7.0140   -0.2700   -1.6630 hn        1 MOL      0.299362
     50 H22        -9.8900   -0.7160   -2.0590 h1        1 MOL      0.013065
     51 H23        -9.8050    1.5880   -1.4460 hc        1 MOL      0.207896
     52 H24        -9.8370    1.4890   -3.2520 hc        1 MOL      0.207896
     53 N5         -8.7580   -1.8930   -4.1280 n         1 MOL     -0.245893
     54 C17        -9.3160   -3.0910   -3.3940 c3        1 MOL     -0.430887
     55 C18        -8.3500   -3.8300   -2.5000 c         1 MOL      0.637066
     56 O9         -8.6950   -4.7270   -1.7770 o         1 MOL     -0.586612
     57 H25        -8.5800   -2.0480   -5.1120 hn        1 MOL      0.274595
     58 H26        -9.5030   -3.8710   -4.1210 h1        1 MOL      0.166122
     59 H27       -10.1290   -2.7890   -2.7290 h1        1 MOL      0.166122
     60 N6         -7.1020   -3.3770   -2.5710 n         1 MOL     -0.208016
     61 C19        -5.8720   -3.9110   -1.9500 c3        1 MOL      0.183278
     62 C20        -4.8270   -2.8250   -1.7090 c         1 MOL      0.435142
     63 O10        -5.1310   -1.6790   -1.9910 o         1 MOL     -0.453339
     64 C21        -5.3840   -5.0920   -2.8120 c3        1 MOL     -0.481445
     65 C22        -5.1320   -4.7210   -4.3160 c         1 MOL      0.732946
     66 O11        -4.7380   -3.5870   -4.5570 o         1 MOL     -0.686577
     67 O12        -5.2140   -5.5600   -5.2570 o         1 MOL     -0.686577
     68 H28        -6.9750   -2.5280   -3.0930 hn        1 MOL      0.194195
     69 H29        -6.0260   -4.2960   -0.9310 h1        1 MOL     -0.020372
     70 H30        -6.1960   -5.8120   -2.6780 hc        1 MOL      0.091164
     71 H31        -4.4720   -5.4270   -2.3190 hc        1 MOL      0.091164
     72 N7         -3.6690   -3.1510   -1.1210 n         1 MOL     -0.228948
     73 C23        -2.7450   -2.0610   -0.6700 c3        1 MOL     -0.183270
     74 C24        -1.8380   -2.5060    0.4700 c         1 MOL      0.567532
     75 O13        -1.5620   -3.6780    0.6370 o         1 MOL     -0.561262
     76 H32        -3.4480   -4.1280   -1.0370 hn        1 MOL      0.188945
     77 H33        -3.3580   -1.3150   -0.1730 h1        1 MOL      0.112814
     78 H34        -2.2070   -1.7140   -1.5500 h1        1 MOL      0.112814
     79 N8         -1.3650   -1.4790    1.1300 n         1 MOL     -0.289244
     80 C25        -0.6010   -1.5480    2.4020 c3        1 MOL      0.102675
     81 C26         0.5200   -0.4520    2.4440 c         1 MOL      0.112727
     82 O14         0.4390    0.6020    1.7100 o         1 MOL     -0.475192
     83 C27        -1.5090   -1.2610    3.5740 c3        1 MOL      0.345204
     84 C28        -2.1990    0.0990    3.4670 c3        1 MOL     -0.791932
     85 O15        -2.4810   -2.2970    3.6790 oh        1 MOL     -0.758238
     86 H35        -1.5250   -0.5470    0.7830 hn        1 MOL      0.220205
     87 H36        -0.1430   -2.5430    2.4780 h1        1 MOL      0.041896
     88 H37        -0.9190   -1.1850    4.4820 h1        1 MOL      0.024926
     89 H38        -3.0700   -2.1040    4.4230 ho        1 MOL      0.476331
     90 H39        -3.1140    0.1070    2.8870 hc        1 MOL      0.215201
     91 H40        -2.4740    0.3830    4.4880 hc        1 MOL      0.215201
     92 H41        -1.5850    0.9220    3.1030 hc        1 MOL      0.215201
     93 N9          1.3920   -0.4640    3.3870 n         1 MOL      0.084316
     94 C29         2.5110    0.4680    3.5860 c3        1 MOL     -0.060222
     95 C30         3.6650    0.1750    2.6610 c         1 MOL      0.601219
     96 O16         4.2120    1.1700    2.1330 o         1 MOL     -0.529701
     97 C31         3.0540    0.4820    5.0370 c3        1 MOL      0.091939
     98 C32         1.9710    0.3760    6.1150 c3        1 MOL     -0.189060
     99 C33         3.8830    1.7720    5.4760 c3        1 MOL     -0.207535
    100 C34         0.9630    1.5410    6.1310 c3        1 MOL      0.007026
    101 H42         1.3570   -1.3080    3.9310 hn        1 MOL      0.147027
    102 H43         2.1200    1.4380    3.2770 h1        1 MOL      0.092214
    103 H44         3.7100   -0.3820    5.0850 hc        1 MOL     -0.018977
    104 H45         2.3410    0.3410    7.1450 hc        1 MOL      0.051946
    105 H46         1.4250   -0.5580    5.9880 hc        1 MOL      0.051946
    106 H47         4.1240    1.7930    6.5390 hc        1 MOL      0.076444
    107 H48         4.7200    1.8790    4.7900 hc        1 MOL      0.076444
    108 H49         3.2040    2.6010    5.2550 hc        1 MOL      0.076444
    109 H50         1.5000    2.4670    6.3570 hc        1 MOL      0.013404
    110 H51         0.6130    1.5860    5.1020 hc        1 MOL      0.013404
    111 H52         0.1410    1.3770    6.8310 hc        1 MOL      0.013404
    112 N10         3.8550   -1.1090    2.3830 n         1 MOL     -0.468762
    113 C35         4.8000   -1.4720    1.3080 c3        1 MOL      0.056522
    114 C36         5.9740   -2.2970    1.7060 c         1 MOL      0.657655
    115 O17         6.0540   -2.8310    2.8070 o         1 MOL     -0.566940
    116 C37         3.8980   -2.0310    0.2690 c3        1 MOL      0.328412
    117 C38         2.8240   -0.9900   -0.1610 c3        1 MOL     -0.242390
    118 O18         4.6020   -2.5690   -0.8930 oh        1 MOL     -0.681106
    119 H53         3.3060   -1.8370    2.8220 hn        1 MOL      0.231669
    120 H54         5.1760   -0.5230    0.9290 h1        1 MOL      0.064558
    121 H55         3.4180   -2.9300    0.6480 h1        1 MOL     -0.016791
    122 H56         3.8640   -2.8420   -1.4430 ho        1 MOL      0.426663
    123 H57         3.0880    0.0490    0.0160 hc        1 MOL      0.075204
    124 H58         2.6490   -1.2030   -1.2170 hc        1 MOL      0.075204
    125 H59         1.8800   -1.1740    0.3550 hc        1 MOL      0.075204
    126 N11         7.0200   -2.3790    0.9160 n         1 MOL     -0.674412
    127 C39         8.2390   -3.1660    1.2170 c3        1 MOL      0.172614
    128 C40         9.5730   -2.3970    1.0220 c         1 MOL      0.615942
    129 O19        10.4850   -2.4730    1.8880 o         1 MOL     -0.583700
    130 C41         8.1810   -4.4820    0.5090 c3        1 MOL      0.186695
    131 C42         9.4010   -5.3300    0.5070 c3        1 MOL     -0.314669
    132 O20         7.8730   -4.2640   -0.8410 oh        1 MOL     -0.622871
    133 H60         6.9130   -2.0190   -0.0210 hn        1 MOL      0.387603
    134 H61         8.2920   -3.4030    2.2750 h1        1 MOL      0.073809
    135 H62         7.4140   -5.0990    0.9790 h1        1 MOL      0.059397
    136 H63         7.5200   -5.0860   -1.1900 ho        1 MOL      0.417232
    137 H64         9.0790   -6.3490    0.2970 hc        1 MOL      0.082699
    138 H65        10.0720   -5.0360   -0.2950 hc        1 MOL      0.082699
    139 H66        10.0050   -5.3390    1.4150 hc        1 MOL      0.082699
    140 N12         9.6320   -1.5410    0.0330 n         1 MOL     -0.416801
    141 C43        10.7330   -0.5860   -0.1780 c3        1 MOL      0.030034
    142 C44        10.1600    0.5290   -0.9980 c         1 MOL      0.446512
    143 O21         9.1820    0.3350   -1.7350 o         1 MOL     -0.472706
    144 C45        11.8410   -1.3520   -0.9500 c3        1 MOL     -0.108064
    145 C46        11.3440   -2.2090   -2.1730 c3        1 MOL     -0.069289
    146 C47        12.3800   -3.1220   -2.9230 c3        1 MOL     -0.131164
    147 C48        13.4970   -2.2880   -3.6010 c3        1 MOL      0.051588
    148 N13        14.6050   -3.2040   -4.1530 n4        1 MOL     -0.348669
    149 H67         8.8630   -1.5080   -0.6190 hn        1 MOL      0.227692
    150 H68        11.2180   -0.2030    0.7110 h1        1 MOL      0.112102
    151 H69        12.2440   -2.0150   -0.1720 hc        1 MOL      0.048637
    152 H70        12.7220   -0.7720   -1.2110 hc        1 MOL      0.048637
    153 H71        10.8200   -1.5280   -2.8350 hc        1 MOL      0.078414
    154 H72        10.6720   -2.9760   -1.7800 hc        1 MOL      0.078414
    155 H73        11.8310   -3.7960   -3.5670 hc        1 MOL      0.069581
    156 H74        12.7340   -3.7980   -2.1420 hc        1 MOL      0.069581
    157 H75        13.9670   -1.4950   -3.0160 hx        1 MOL      0.094035
    158 H76        12.9950   -1.7880   -4.4230 hx        1 MOL      0.094035
    159 H77        15.2710   -3.3980   -3.4180 hn        1 MOL      0.268742
    160 H78        14.1180   -3.9830   -4.5690 hn        1 MOL      0.268742
    161 H79        15.2320   -2.8690   -4.8720 hn        1 MOL      0.268742
    162 N14        10.7180    1.7700   -0.9590 n         1 MOL     -0.440033
    163 C49        10.1590    2.8960   -1.7090 c3        1 MOL      0.036782
    164 C50         8.8150    3.4150   -1.1600 c         1 MOL      0.461951
    165 O22         7.9510    3.6820   -1.9380 o         1 MOL     -0.512545
    166 C51        11.1690    4.0020   -1.6760 c3        1 MOL     -0.002721
    167 C52        10.7680    5.3050   -2.3430 c3        1 MOL     -0.296139
    168 C53        11.8880    6.3000   -2.7400 c         1 MOL      0.782241
    169 O23        12.4540    6.2220   -3.8170 o         1 MOL     -0.676881
    170 O24        12.0850    7.1920   -1.9350 o         1 MOL     -0.676881
    171 H80        11.6070    1.8080   -0.4840 hn        1 MOL      0.269326
    172 H81         9.9480    2.6010   -2.7380 h1        1 MOL      0.106858
    173 H82        12.0980    3.6510   -2.1440 hc        1 MOL      0.019049
    174 H83        11.6290    4.2390   -0.7120 hc        1 MOL      0.019049
    175 H84        10.1710    5.9050   -1.6520 hc        1 MOL      0.078505
    176 H85        10.2430    4.9900   -3.2390 hc        1 MOL      0.078505
    177 N15         8.5280    3.4450    0.1560 n         1 MOL     -0.374382
    178 C54         9.3680    3.8150    1.3230 c3        1 MOL     -0.047857
    179 H86         9.7580    4.8240    1.1840 h1        1 MOL      0.058764
    180 H87         8.7640    3.7820    2.2310 h1        1 MOL      0.058764
    181 H88        10.1970    3.1140    1.4120 h1        1 MOL      0.058764
    182 H89         7.5420    3.4430    0.3830 hn        1 MOL      0.293248
    183 Ca1        -5.6700    4.0210   -1.7430 Ca        1 MOL      1.667634
    184 O25        -7.1430    6.1060   -0.8100 oh        1 MOL     -0.801397
    185 H90        -6.8740    6.9690   -0.4970 ho        1 MOL      0.402736
    186 H91        -7.8130    5.8190   -0.1950 ho        1 MOL      0.402736
    187 O26        -3.4680    5.5030   -1.9660 oh        1 MOL     -0.801397
    188 H92        -3.0290    5.6250   -1.1230 ho        1 MOL      0.402736
    189 H93        -2.8360    5.8200   -2.6140 ho        1 MOL      0.402736
    190 O27        -4.2410    1.8620   -0.8540 oh        1 MOL     -0.801397
    191 H94        -3.3660    1.5600   -0.6160 ho        1 MOL      0.402736
    192 H95        -4.8190    1.4820   -0.2040 ho        1 MOL      0.402736
    193 O28        -4.1600    3.1500   -3.7080 oh        1 MOL     -0.801397
    194 H96        -3.3740    3.5920   -4.0200 ho        1 MOL      0.402736
    195 H97        -3.9440    2.2120   -3.7530 ho        1 MOL      0.402736
    196 O29        -4.6920    4.8850    0.5490 oh        1 MOL     -0.801397
    197 H98        -4.7700    5.7730    0.8990 ho        1 MOL      0.402736
    198 H99        -3.8760    4.5530    0.9010 ho        1 MOL      0.402736
    199 O30        -5.8070    5.5290   -3.9740 oh        1 MOL     -0.801397
    200 H100       -6.0580    6.4540   -3.9050 ho        1 MOL      0.402736
    201 H101       -6.0140    5.2850   -4.8760 ho        1 MOL      0.402736
@<TRIPOS>BOND
     1    1    2 1   
     2    1    4 1   
     3    1    5 1   
     4    1    6 1   
     5    2    3 2   
     6    2    7 1   
     7    7    8 1   
     8    7   15 1   
     9    8    9 1   
    10    8   11 1   
    11    8   16 1   
    12    9   10 2   
    13    9   19 1   
    14   11   12 1   
    15   11   17 1   
    16   11   18 1   
    17   12   13 1   
    18   12   14 1   
    19   19   20 1   
    20   19   28 1   
    21   20   21 1   
    22   20   23 1   
    23   20   29 1   
    24   21   22 2   
    25   21   41 1   
    26   23   24 1   
    27   23   30 1   
    28   23   31 1   
    29   24   25 1   
    30   24   32 1   
    31   24   33 1   
    32   25   26 1   
    33   25   34 1   
    34   25   35 1   
    35   26   27 1   
    36   26   36 1   
    37   26   37 1   
    38   27   38 1   
    39   27   39 1   
    40   27   40 1   
    41   41   42 1   
    42   41   49 1   
    43   42   43 1   
    44   42   45 1   
    45   42   50 1   
    46   43   44 2   
    47   43   53 1   
    48   45   46 1   
    49   45   51 1   
    50   45   52 1   
    51   46   47 1   
    52   46   48 1   
    53   53   54 1   
    54   53   57 1   
    55   54   55 1   
    56   54   58 1   
    57   54   59 1   
    58   55   56 2   
    59   55   60 1   
    60   60   61 1   
    61   60   68 1   
    62   61   62 1   
    63   61   64 1   
    64   61   69 1   
    65   62   63 2   
    66   62   72 1   
    67   64   65 1   
    68   64   70 1   
    69   64   71 1   
    70   65   66 1   
    71   65   67 1   
    72   72   73 1   
    73   72   76 1   
    74   73   74 1   
    75   73   77 1   
    76   73   78 1   
    77   74   75 2   
    78   74   79 1   
    79   79   80 1   
    80   79   86 1   
    81   80   81 1   
    82   80   83 1   
    83   80   87 1   
    84   81   82 2   
    85   81   93 1   
    86   83   84 1   
    87   83   85 1   
    88   83   88 1   
    89   84   90 1   
    90   84   91 1   
    91   84   92 1   
    92   85   89 1   
    93   93   94 1   
    94   93  101 1   
    95   94   95 1   
    96   94   97 1   
    97   94  102 1   
    98   95   96 2   
    99   95  112 1   
   100   97   98 1   
   101   97   99 1   
   102   97  103 1   
   103   98  100 1   
   104   98  104 1   
   105   98  105 1   
   106   99  106 1   
   107   99  107 1   
   108   99  108 1   
   109  100  109 1   
   110  100  110 1   
   111  100  111 1   
   112  112  113 1   
   113  112  119 1   
   114  113  114 1   
   115  113  116 1   
   116  113  120 1   
   117  114  115 2   
   118  114  126 1   
   119  116  117 1   
   120  116  118 1   
   121  116  121 1   
   122  117  123 1   
   123  117  124 1   
   124  117  125 1   
   125  118  122 1   
   126  126  127 1   
   127  126  133 1   
   128  127  128 1   
   129  127  130 1   
   130  127  134 1   
   131  128  129 2   
   132  128  140 1   
   133  130  131 1   
   134  130  132 1   
   135  130  135 1   
   136  131  137 1   
   137  131  138 1   
   138  131  139 1   
   139  132  136 1   
   140  140  141 1   
   141  140  149 1   
   142  141  142 1   
   143  141  144 1   
   144  141  150 1   
   145  142  143 2   
   146  142  162 1   
   147  144  145 1   
   148  144  151 1   
   149  144  152 1   
   150  145  146 1   
   151  145  153 1   
   152  145  154 1   
   153  146  147 1   
   154  146  155 1   
   155  146  156 1   
   156  147  148 1   
   157  147  157 1   
   158  147  158 1   
   159  148  159 1   
   160  148  160 1   
   161  148  161 1   
   162  162  163 1   
   163  162  171 1   
   164  163  164 1   
   165  163  166 1   
   166  163  172 1   
   167  164  165 2   
   168  164  177 1   
   169  166  167 1   
   170  166  173 1   
   171  166  174 1   
   172  167  168 1   
   173  167  175 1   
   174  167  176 1   
   175  168  169 1   
   176  168  170 1   
   177  177  178 1   
   178  177  182 1   
   179  178  179 1   
   180  178  180 1   
   181  178  181 1   
   182  184  185 1   
   183  184  186 1   
   184  187  188 1   
   185  187  189 1   
   186  190  191 1   
   187  190  192 1   
   188  193  194 1   
   189  193  195 1   
   190  196  197 1   
   191  196  198 1   
   192  199  200 1   
   193  199  201 1   
@<TRIPOS>SUBSTRUCTURE
     1 MOL         1 TEMP              0 ****  ****    0 ROOT
