@<TRIPOS>MOLECULE
MOL
  194   186     1     0     0
SMALL
resp


@<TRIPOS>ATOM
      1 C1          0.9490   -0.2410   -3.5490 c3        1 MOL     -0.364081
      2 C2          2.0890    0.0250   -2.5850 c         1 MOL      0.655697
      3 O1          2.0940   -0.3810   -1.4110 o         1 MOL     -0.652047
      4 H1          0.3560   -1.0800   -3.1880 hc        1 MOL      0.102087
      5 H2          0.3180    0.6460   -3.6210 hc        1 MOL      0.102087
      6 H3          1.3530   -0.4790   -4.5340 hc        1 MOL      0.102087
      7 N1          3.1300    0.7110   -2.9810 n         1 MOL     -0.359393
      8 C3          4.4380    0.8460   -2.3020 c3        1 MOL     -0.050020
      9 C4          4.7760    2.3010   -1.8210 c         1 MOL      0.558838
     10 O2          5.8790    2.6130   -1.4550 o         1 MOL     -0.450731
     11 C5          5.4850    0.0840   -3.1840 c3        1 MOL     -0.328830
     12 C6          5.9360    0.7190   -4.5460 c         1 MOL      0.727044
     13 O3          6.9080    0.2230   -5.1710 o         1 MOL     -0.669430
     14 O4          5.3330    1.7050   -5.0500 o         1 MOL     -0.669430
     15 H4          2.9470    1.1720   -3.8570 hn        1 MOL      0.240287
     16 H5          4.4410    0.3050   -1.3540 h1        1 MOL      0.105386
     17 H6          5.2540   -0.9720   -3.3360 hc        1 MOL      0.100269
     18 H7          6.4120    0.0720   -2.6020 hc        1 MOL      0.100269
     19 N2          3.8460    3.3000   -1.8590 n         1 MOL     -0.620129
     20 C7          3.8590    4.6950   -1.2460 c3        1 MOL      0.409768
     21 C8          4.5260    4.6520    0.1150 c         1 MOL      0.194506
     22 O5          5.1890    5.5800    0.5830 o         1 MOL     -0.480134
     23 C9          4.4260    5.6210   -2.3610 c3        1 MOL     -0.027698
     24 C10         4.0670    7.0580   -2.0220 c3        1 MOL     -0.022624
     25 C11         4.4160    7.9510   -3.2210 c3        1 MOL      0.039476
     26 C12         4.3760    9.3500   -2.7510 c3        1 MOL      0.063001
     27 N3          4.8560   10.2560   -3.8010 n4        1 MOL     -0.205778
     28 H8          2.8990    3.1050   -2.1740 hn        1 MOL      0.269226
     29 H9          2.8480    4.9400   -0.9450 h1        1 MOL      0.027782
     30 H10         3.7950    5.3790   -3.2120 hc        1 MOL      0.038350
     31 H11         5.4830    5.3910   -2.4980 hc        1 MOL      0.038350
     32 H12         4.6600    7.3620   -1.1650 hc        1 MOL      0.004528
     33 H13         3.0040    7.1380   -1.7750 hc        1 MOL      0.004528
     34 H14         3.6880    7.7960   -4.0100 hc        1 MOL      0.007643
     35 H15         5.3860    7.7070   -3.6300 hc        1 MOL      0.007643
     36 H16         5.0230    9.5010   -1.8830 hx        1 MOL      0.064711
     37 H17         3.3590    9.5940   -2.4300 hx        1 MOL      0.064711
     38 H18         4.7610   11.2500   -3.6440 hn        1 MOL      0.250103
     39 H19         5.8310   10.0510   -4.0150 hn        1 MOL      0.250103
     40 H20         4.3870   10.0440   -4.6710 hn        1 MOL      0.250103
     41 N4          4.3710    3.4950    0.8320 n         1 MOL     -0.104611
     42 C13         5.0300    3.1810    2.1100 c3        1 MOL      0.170949
     43 C14         5.5800    1.7240    2.1580 c         1 MOL      0.416558
     44 O6          5.0770    0.8330    1.4710 o         1 MOL     -0.501780
     45 C15         4.0330    3.3800    3.2770 c3        1 MOL     -0.556857
     46 C16         2.8260    2.5210    3.2850 c         1 MOL      0.894582
     47 O7          1.9510    2.6830    2.4180 o         1 MOL     -0.763165
     48 O8          2.8460    1.5090    4.0840 o         1 MOL     -0.763165
     49 H21         3.8140    2.7340    0.4900 hn        1 MOL      0.193611
     50 H22         5.8830    3.8370    2.3160 h1        1 MOL      0.067764
     51 H23         3.7110    4.4200    3.3660 hc        1 MOL      0.120452
     52 H24         4.6120    3.2340    4.1870 hc        1 MOL      0.120452
     53 N5          6.6880    1.4820    2.8590 n         1 MOL     -0.442952
     54 C17         7.3680    0.1710    2.8050 c3        1 MOL      0.081654
     55 C18         8.1840   -0.1090    1.6250 c         1 MOL      0.569864
     56 O9          9.1400    0.6620    1.3680 o         1 MOL     -0.541218
     57 H25         6.8840    2.1850    3.5650 hn        1 MOL      0.330456
     58 H26         6.5990   -0.5990    2.9320 h1        1 MOL      0.025982
     59 H27         7.9530    0.1010    3.7150 h1        1 MOL      0.025982
     60 N6          8.0360   -1.2420    0.9110 n         1 MOL     -0.513681
     61 C19         7.0070   -2.3110    1.0490 c3        1 MOL      0.243731
     62 C20         6.7620   -2.7630   -0.3650 c         1 MOL      0.476913
     63 O10         7.7720   -3.0240   -1.0900 o         1 MOL     -0.529562
     64 C21         7.6070   -3.3570    1.9260 c3        1 MOL     -0.349237
     65 C22         6.9020   -4.7160    1.9270 c         1 MOL      0.688360
     66 N7          5.6270   -4.6150    2.0870 n         1 MOL     -0.786982
     67 O11         7.4940   -5.7720    1.7980 o         1 MOL     -0.535758
     68 H28         8.6120   -1.3980    0.0980 hn        1 MOL      0.330127
     69 H29         6.0600   -1.9410    1.4580 h1        1 MOL      0.010470
     70 H30         7.5180   -3.0360    2.9650 hc        1 MOL      0.104096
     71 H31         8.6650   -3.4830    1.6940 hc        1 MOL      0.104096
     72 H32         5.2160   -3.7820    2.4840 hn        1 MOL      0.354051
     73 H33         5.0760   -5.4550    2.1290 hn        1 MOL      0.354051
     74 N8          5.5720   -3.0380   -0.8930 n         1 MOL     -0.404337
     75 C23         4.2800   -2.6750   -0.2160 c3        1 MOL      0.079078
     76 C24         3.2150   -3.6450   -0.8390 c         1 MOL      0.680335
     77 O12         3.5220   -4.6980   -1.2500 o         1 MOL     -0.527890
     78 H34         5.5900   -3.5230   -1.7820 hn        1 MOL      0.310883
     79 H35         4.0420   -1.6370   -0.4490 h1        1 MOL     -0.015630
     80 H36         4.3130   -2.7970    0.8590 h1        1 MOL     -0.015630
     81 N9          1.9100   -3.3390   -0.6260 n         1 MOL     -0.539350
     82 C25         0.7140   -4.1130   -1.1020 c3        1 MOL      0.034141
     83 C26        -0.4670   -3.1950   -1.1130 c         1 MOL      0.716224
     84 O13        -0.4190   -2.0560   -0.6310 o         1 MOL     -0.462128
     85 C27         0.4840   -5.3090   -0.1390 c3        1 MOL     -0.261952
     86 C28        -0.3460   -6.4100   -0.7730 ca        1 MOL      0.102264
     87 C29        -1.7180   -6.5050   -0.3380 ca        1 MOL     -0.204365
     88 C30         0.1840   -7.2280   -1.8060 ca        1 MOL     -0.204365
     89 C31        -2.3900   -7.5630   -0.9490 ca        1 MOL     -0.219091
     90 C32        -0.5940   -8.2240   -2.3710 ca        1 MOL     -0.219091
     91 C33        -1.8920   -8.3460   -2.0100 ca        1 MOL      0.360803
     92 O14        -2.6900   -9.2300   -2.5800 oh        1 MOL     -0.518565
     93 H37         1.7030   -2.4540   -0.1890 hn        1 MOL      0.265972
     94 H38         0.7710   -4.5190   -2.1070 h1        1 MOL      0.082440
     95 H39         0.0490   -4.9660    0.7920 hc        1 MOL      0.099460
     96 H40         1.4610   -5.7430    0.0890 hc        1 MOL      0.099460
     97 H41        -2.1050   -5.9010    0.4650 ha        1 MOL      0.168165
     98 H42         1.1850   -7.0450   -2.1610 ha        1 MOL      0.168165
     99 H43        -3.4350   -7.7010   -0.7300 ha        1 MOL      0.123667
    100 H44        -0.2440   -8.8840   -3.1500 ha        1 MOL      0.123667
    101 H45        -2.2740   -9.6680   -3.3260 ho        1 MOL      0.398248
    102 N10        -1.6110   -3.6030   -1.6500 n         1 MOL     -0.628209
    103 C34        -2.8600   -2.7810   -1.5560 c3        1 MOL     -0.111267
    104 C35        -3.2920   -2.6590   -0.0780 c         1 MOL      0.593459
    105 O15        -2.9970   -3.5590    0.7050 o         1 MOL     -0.556761
    106 C36        -3.9260   -3.1190   -2.6420 c3        1 MOL      0.408612
    107 C37        -4.4860   -4.5420   -2.4840 c3        1 MOL     -0.026572
    108 C38        -5.0450   -2.1440   -2.7220 c3        1 MOL     -0.264867
    109 C39        -5.1720   -4.9880   -3.7220 c3        1 MOL     -0.229769
    110 H46        -1.7340   -4.5570   -1.9580 hn        1 MOL      0.300232
    111 H47        -2.5230   -1.7650   -1.7540 h1        1 MOL      0.049422
    112 H48        -3.4370   -3.0580   -3.6080 hc        1 MOL     -0.021497
    113 H49        -5.2110   -4.5530   -1.6730 hc        1 MOL      0.027506
    114 H50        -3.6890   -5.2650   -2.3020 hc        1 MOL      0.027506
    115 H51        -5.7400   -2.2570   -1.8810 hc        1 MOL      0.051903
    116 H52        -4.6620   -1.1200   -2.6820 hc        1 MOL      0.051903
    117 H53        -5.5320   -2.2430   -3.6910 hc        1 MOL      0.051903
    118 H54        -5.6020   -5.9820   -3.5730 hc        1 MOL      0.059268
    119 H55        -6.0380   -4.3610   -3.9790 hc        1 MOL      0.059268
    120 H56        -4.4100   -5.0170   -4.4930 hc        1 MOL      0.059268
    121 N11        -3.8660   -1.5440    0.2330 n         1 MOL     -0.480593
    122 C40        -4.4460   -1.3520    1.5760 c3        1 MOL      0.176474
    123 C41        -4.7120    0.1160    1.9370 c         1 MOL      0.297547
    124 O16        -4.9420    1.0070    1.1110 o         1 MOL     -0.396534
    125 C42        -5.7330   -2.0210    1.7460 c3        1 MOL     -0.024493
    126 O17        -6.7000   -1.5020    0.7700 oh        1 MOL     -0.499027
    127 H57        -4.2240   -0.9470   -0.4960 hn        1 MOL      0.293161
    128 H58        -3.8060   -1.8350    2.3120 h1        1 MOL     -0.004768
    129 H59        -6.2140   -1.9750    2.7250 h1        1 MOL      0.079601
    130 H60        -5.6570   -3.0970    1.5430 h1        1 MOL      0.079601
    131 H61        -7.5780   -1.6080    1.1310 ho        1 MOL      0.373348
    132 N12        -4.9340    0.3270    3.2070 n         1 MOL     -0.273902
    133 C43        -5.3280    1.6200    3.7740 c3        1 MOL     -0.061941
    134 C44        -6.6530    2.2760    3.1080 c         1 MOL      0.565092
    135 O18        -6.6790    3.5300    2.9660 o         1 MOL     -0.487604
    136 C45        -4.1550    2.5870    3.7660 c3        1 MOL     -0.310889
    137 H62        -4.8080   -0.3890    3.9020 hn        1 MOL      0.189347
    138 H63        -5.6550    1.4550    4.8020 h1        1 MOL      0.106967
    139 H64        -3.7960    2.8510    2.7800 hc        1 MOL      0.109693
    140 H65        -4.3530    3.5040    4.3250 hc        1 MOL      0.109693
    141 H66        -3.3580    2.1540    4.3690 hc        1 MOL      0.109693
    142 N13        -7.6340    1.4520    2.8660 n         1 MOL     -0.635120
    143 C46        -8.9160    1.8170    2.2790 c3        1 MOL      0.442761
    144 C47        -8.9380    2.2180    0.8040 c         1 MOL      0.162114
    145 O19        -9.9440    2.7540    0.3660 o         1 MOL     -0.447643
    146 C48        -9.7520    2.8110    3.1470 c3        1 MOL     -0.199672
    147 H67        -7.3100    0.4940    2.8500 hn        1 MOL      0.279408
    148 H68        -9.5680    0.9440    2.3690 h1        1 MOL     -0.005147
    149 H69       -10.7570    2.7150    2.7290 hc        1 MOL      0.059469
    150 H70        -9.7940    2.4110    4.1590 hc        1 MOL      0.059469
    151 H71        -9.4090    3.8510    3.1120 hc        1 MOL      0.059469
    152 N14        -7.8400    2.0520    0.0740 n         1 MOL      0.009738
    153 C49        -7.7920    2.5570   -1.3570 c3        1 MOL     -0.370072
    154 C50        -8.7260    1.8900   -2.4240 c         1 MOL      0.475503
    155 O20        -9.2140    2.4670   -3.3660 o         1 MOL     -0.471767
    156 C51        -6.2820    2.4210   -1.7720 c3        1 MOL      0.202928
    157 C52        -5.8640    3.3440   -2.8610 c3        1 MOL     -0.170703
    158 C53        -5.8640    4.7710   -2.3970 c         1 MOL      0.747012
    159 O21        -4.7660    5.3940   -2.3900 o         1 MOL     -0.688084
    160 O22        -6.9830    5.2710   -2.1350 o         1 MOL     -0.688084
    161 H72        -7.0270    1.5350    0.3560 hn        1 MOL      0.077949
    162 H73        -8.0170    3.6140   -1.2460 h1        1 MOL      0.268181
    163 H74        -6.0140    1.3780   -1.9300 hc        1 MOL     -0.023881
    164 H75        -5.6280    2.7300   -0.9590 hc        1 MOL     -0.023881
    165 H76        -6.5210    3.3010   -3.7320 hc        1 MOL     -0.002782
    166 H77        -4.8590    3.0600   -3.1790 hc        1 MOL     -0.002782
    167 N15        -8.9790    0.5890   -2.2070 n         1 MOL     -0.152325
    168 C54        -9.9430   -0.1770   -2.9670 c3        1 MOL     -0.295466
    169 H78       -10.3030   -1.0100   -2.3620 h1        1 MOL      0.114195
    170 H79       -10.7820    0.4630   -3.2400 h1        1 MOL      0.114195
    171 H80        -9.4710   -0.5630   -3.8700 h1        1 MOL      0.114195
    172 H81        -8.5240    0.2390   -1.3790 hn        1 MOL      0.137908
    173 Ca1         0.6480    0.2400    3.2340 Ca        1 MOL      1.757055
    174 O23         0.5010   -2.4170    2.6480 oh        1 MOL     -0.854510
    175 H82        -0.3880   -2.7500    2.7590 ho        1 MOL      0.416542
    176 H83         1.0580   -3.1880    2.8000 ho        1 MOL      0.416542
    177 O24        -0.1410    1.5170    5.3920 oh        1 MOL     -0.854510
    178 H84         0.2540    2.2030    5.9280 ho        1 MOL      0.416542
    179 H85        -0.9790    1.3430    5.8110 ho        1 MOL      0.416542
    180 O25        -0.9700    2.3310    2.3910 oh        1 MOL     -0.854510
    181 H86        -1.2580    3.0710    2.9230 ho        1 MOL      0.416542
    182 H87        -1.5650    2.3310    1.6390 ho        1 MOL      0.416542
    183 O26        -0.4560    0.1400    0.6720 oh        1 MOL     -0.854510
    184 H88        -0.5120   -0.6510    0.1390 ho        1 MOL      0.416542
    185 H89        -1.2170    0.6590    0.4170 ho        1 MOL      0.416542
    186 O27        -1.8100   -0.6520    3.9650 oh        1 MOL     -0.854510
    187 H90        -2.1470   -1.5340    4.0390 ho        1 MOL      0.416542
    188 H91        -2.4680   -0.1070    4.3900 ho        1 MOL      0.416542
    189 O28         1.2730   -1.1170    5.4480 oh        1 MOL     -0.854510
    190 H92         1.8300   -1.8950    5.4520 ho        1 MOL      0.416542
    191 H93         1.3150   -0.7760    6.3420 ho        1 MOL      0.416542
    192 O29         2.6750   -0.3470    1.3560 oh        1 MOL     -0.854510
    193 H94         2.5430   -0.3460    0.4050 ho        1 MOL      0.416542
    194 H95         3.6080   -0.1490    1.4660 ho        1 MOL      0.416542
@<TRIPOS>BOND
     1    1    2 1   
     2    1    4 1   
     3    1    5 1   
     4    1    6 1   
     5    2    3 2   
     6    2    7 1   
     7    7    8 1   
     8    7   15 1   
     9    8    9 1   
    10    8   11 1   
    11    8   16 1   
    12    9   10 2   
    13    9   19 1   
    14   11   12 1   
    15   11   17 1   
    16   11   18 1   
    17   12   13 1   
    18   12   14 1   
    19   19   20 1   
    20   19   28 1   
    21   20   21 1   
    22   20   23 1   
    23   20   29 1   
    24   21   22 2   
    25   21   41 1   
    26   23   24 1   
    27   23   30 1   
    28   23   31 1   
    29   24   25 1   
    30   24   32 1   
    31   24   33 1   
    32   25   26 1   
    33   25   34 1   
    34   25   35 1   
    35   26   27 1   
    36   26   36 1   
    37   26   37 1   
    38   27   38 1   
    39   27   39 1   
    40   27   40 1   
    41   41   42 1   
    42   41   49 1   
    43   42   43 1   
    44   42   45 1   
    45   42   50 1   
    46   43   44 2   
    47   43   53 1   
    48   45   46 1   
    49   45   51 1   
    50   45   52 1   
    51   46   47 1   
    52   46   48 1   
    53   53   54 1   
    54   53   57 1   
    55   54   55 1   
    56   54   58 1   
    57   54   59 1   
    58   55   56 2   
    59   55   60 1   
    60   60   61 1   
    61   60   68 1   
    62   61   62 1   
    63   61   64 1   
    64   61   69 1   
    65   62   63 2   
    66   62   74 1   
    67   64   65 1   
    68   64   70 1   
    69   64   71 1   
    70   65   66 1   
    71   65   67 2   
    72   66   72 1   
    73   66   73 1   
    74   74   75 1   
    75   74   78 1   
    76   75   76 1   
    77   75   79 1   
    78   75   80 1   
    79   76   77 2   
    80   76   81 1   
    81   81   82 1   
    82   81   93 1   
    83   82   83 1   
    84   82   85 1   
    85   82   94 1   
    86   83   84 2   
    87   83  102 1   
    88   85   86 1   
    89   85   95 1   
    90   85   96 1   
    91   86   87 ar  
    92   86   88 ar  
    93   87   89 ar  
    94   87   97 1   
    95   88   90 ar  
    96   88   98 1   
    97   89   91 ar  
    98   89   99 1   
    99   90   91 ar  
   100   90  100 1   
   101   91   92 1   
   102   92  101 1   
   103  102  103 1   
   104  102  110 1   
   105  103  104 1   
   106  103  106 1   
   107  103  111 1   
   108  104  105 2   
   109  104  121 1   
   110  106  107 1   
   111  106  108 1   
   112  106  112 1   
   113  107  109 1   
   114  107  113 1   
   115  107  114 1   
   116  108  115 1   
   117  108  116 1   
   118  108  117 1   
   119  109  118 1   
   120  109  119 1   
   121  109  120 1   
   122  121  122 1   
   123  121  127 1   
   124  122  123 1   
   125  122  125 1   
   126  122  128 1   
   127  123  124 2   
   128  123  132 1   
   129  125  126 1   
   130  125  129 1   
   131  125  130 1   
   132  126  131 1   
   133  132  133 1   
   134  132  137 1   
   135  133  134 1   
   136  133  136 1   
   137  133  138 1   
   138  134  135 2   
   139  134  142 1   
   140  136  139 1   
   141  136  140 1   
   142  136  141 1   
   143  142  143 1   
   144  142  147 1   
   145  143  144 1   
   146  143  146 1   
   147  143  148 1   
   148  144  145 2   
   149  144  152 1   
   150  146  149 1   
   151  146  150 1   
   152  146  151 1   
   153  152  153 1   
   154  152  161 1   
   155  153  154 1   
   156  153  156 1   
   157  153  162 1   
   158  154  155 2   
   159  154  167 1   
   160  156  157 1   
   161  156  163 1   
   162  156  164 1   
   163  157  158 1   
   164  157  165 1   
   165  157  166 1   
   166  158  159 1   
   167  158  160 1   
   168  167  168 1   
   169  167  172 1   
   170  168  169 1   
   171  168  170 1   
   172  168  171 1   
   173  174  175 1   
   174  174  176 1   
   175  177  178 1   
   176  177  179 1   
   177  180  181 1   
   178  180  182 1   
   179  183  184 1   
   180  183  185 1   
   181  186  187 1   
   182  186  188 1   
   183  189  190 1   
   184  189  191 1   
   185  192  193 1   
   186  192  194 1   
@<TRIPOS>SUBSTRUCTURE
     1 MOL         1 TEMP              0 ****  ****    0 ROOT
