@<TRIPOS>MOLECULE
MOL
  175   173     1     0     0
SMALL
resp


@<TRIPOS>ATOM
      1 C1         -6.0160    8.2200    1.3930 c3        1 MOL     -0.353674
      2 C2         -7.0770    7.3850    0.6240 c         1 MOL      0.657797
      3 O1         -7.2420    7.5710   -0.5780 o         1 MOL     -0.565497
      4 H1         -5.3620    8.7220    0.6790 hc        1 MOL      0.083192
      5 H2         -6.5170    8.9640    2.0120 hc        1 MOL      0.083192
      6 H3         -5.4220    7.5610    2.0260 hc        1 MOL      0.083192
      7 N1         -7.8720    6.5430    1.3080 n         1 MOL     -0.503110
      8 C3         -8.7880    5.6770    0.5290 c3        1 MOL      0.222884
      9 C4         -8.0990    4.5570   -0.3350 c         1 MOL      0.609455
     10 O2         -8.6510    4.1990   -1.3590 o         1 MOL     -0.498663
     11 C5         -9.8290    5.0680    1.4850 c3        1 MOL     -0.327898
     12 C6        -10.9740    4.4220    0.7550 c         1 MOL      0.752039
     13 O3        -11.8560    5.1820    0.2010 o         1 MOL     -0.738421
     14 O4        -11.0650    3.2210    0.6260 o         1 MOL     -0.738421
     15 H4         -7.8090    6.3530    2.3010 hn        1 MOL      0.277624
     16 H5         -9.3780    6.2350   -0.1990 h1        1 MOL      0.014696
     17 H6        -10.2670    5.7600    2.2110 hc        1 MOL      0.035906
     18 H7         -9.3100    4.2530    1.9930 hc        1 MOL      0.035906
     19 N2         -6.8850    4.0490    0.0690 n         1 MOL     -0.660095
     20 C7         -6.1830    3.0960   -0.6970 c3        1 MOL      0.365506
     21 C8         -5.1500    2.3270    0.2440 c         1 MOL      0.507552
     22 O5         -4.5730    2.8550    1.2200 o         1 MOL     -0.531479
     23 C9         -5.5640    3.8450   -1.8960 c3        1 MOL     -0.351247
     24 H8         -6.4910    4.3020    0.9670 hn        1 MOL      0.264926
     25 H9         -6.8620    2.2890   -0.9890 h1        1 MOL      0.051403
     26 H10        -6.3720    3.8390   -2.6240 hc        1 MOL      0.099662
     27 H11        -5.2840    4.8730   -1.6610 hc        1 MOL      0.099662
     28 H12        -4.6340    3.3700   -2.2220 hc        1 MOL      0.099662
     29 N3         -5.0030    0.9900    0.0440 n         1 MOL     -0.435453
     30 C10        -5.5600    0.1080   -0.9580 c3        1 MOL     -0.135106
     31 C11        -5.6590   -1.3660   -0.4150 c         1 MOL      0.596905
     32 O6         -5.0270   -1.6650    0.5660 o         1 MOL     -0.515193
     33 C12        -4.6610    0.0700   -2.2260 c3        1 MOL     -0.152015
     34 C13        -3.2310   -0.3550   -1.9510 c         1 MOL      0.683868
     35 O7         -2.4500    0.4380   -1.3820 o         1 MOL     -0.695365
     36 O8         -2.7790   -1.5240   -2.1440 o         1 MOL     -0.695365
     37 H13        -4.2740    0.6210    0.6380 hn        1 MOL      0.274461
     38 H14        -6.4680    0.5500   -1.3750 h1        1 MOL      0.084521
     39 H15        -4.6260    1.0300   -2.7530 hc        1 MOL      0.026897
     40 H16        -5.0950   -0.7480   -2.7970 hc        1 MOL      0.026897
     41 N4         -6.3330   -2.2480   -1.1050 n         1 MOL     -0.361403
     42 C14        -6.7660   -3.5640   -0.7510 c3        1 MOL      0.008205
     43 C15        -6.5920   -4.6770   -1.8520 c         1 MOL      0.516174
     44 O9         -7.5350   -4.9660   -2.5760 o         1 MOL     -0.545089
     45 H17        -6.7030   -1.9040   -1.9760 hn        1 MOL      0.299204
     46 H18        -7.8240   -3.5800   -0.4930 h1        1 MOL      0.036485
     47 H19        -6.1240   -3.7790    0.1130 h1        1 MOL      0.036485
     48 N5         -5.3850   -5.1790   -2.0370 n         1 MOL     -0.462053
     49 C16        -4.0560   -4.6990   -1.4380 c3        1 MOL      0.198938
     50 C17        -3.9350   -5.3910   -0.0440 c         1 MOL      0.357242
     51 O10        -3.6420   -6.6130    0.0350 o         1 MOL     -0.526497
     52 C18        -2.9480   -4.9770   -2.4090 c3        1 MOL      0.015021
     53 C19        -1.5380   -4.5130   -1.9830 c         1 MOL      0.499958
     54 N6         -0.5460   -4.6890   -2.8480 n         1 MOL     -0.721184
     55 O11        -1.3380   -3.9640   -0.8990 o         1 MOL     -0.439791
     56 H20        -5.3120   -6.0450   -2.5590 hn        1 MOL      0.288404
     57 H21        -4.0330   -3.6100   -1.3340 h1        1 MOL      0.007309
     58 H22        -3.2270   -4.2760   -3.2000 hc        1 MOL     -0.005986
     59 H23        -2.9150   -5.9900   -2.8060 hc        1 MOL     -0.005986
     60 H24        -0.6650   -5.2020   -3.7080 hn        1 MOL      0.346969
     61 H25         0.3400   -4.2630   -2.6210 hn        1 MOL      0.346969
     62 N7         -3.9850   -4.6530    1.0540 n         1 MOL     -0.177846
     63 C20        -3.7490   -5.1760    2.4280 c3        1 MOL     -0.330309
     64 C21        -2.2800   -5.2150    2.9030 c         1 MOL      0.489473
     65 O12        -2.0120   -5.7900    3.9980 o         1 MOL     -0.557413
     66 H26        -4.1960   -3.6660    0.9380 hn        1 MOL      0.261116
     67 H27        -4.1560   -6.1790    2.5190 h1        1 MOL      0.148655
     68 H28        -4.2850   -4.4140    2.9880 h1        1 MOL      0.148655
     69 N8         -1.3610   -4.7500    2.0400 n         1 MOL     -0.016867
     70 C22         0.1140   -4.9280    2.2670 c3        1 MOL     -0.341715
     71 C23         0.9220   -3.7130    1.8930 c         1 MOL      0.416562
     72 O13         0.4620   -2.7960    1.1820 o         1 MOL     -0.501914
     73 C24         0.6840   -6.1720    1.4830 c3        1 MOL      0.433965
     74 C25        -0.0020   -7.4930    1.9400 c3        1 MOL     -0.459650
     75 O14         0.5060   -5.9670    0.1110 oh        1 MOL     -0.629532
     76 H29        -1.6610   -4.2230    1.2270 hn        1 MOL      0.080440
     77 H30         0.1770   -5.1240    3.3330 h1        1 MOL      0.112106
     78 H31         1.7680   -6.2860    1.5070 h1        1 MOL     -0.015184
     79 H32         1.0260   -5.2410   -0.2420 ho        1 MOL      0.472979
     80 H33         0.2080   -7.6750    2.9950 hc        1 MOL      0.127897
     81 H34        -1.0480   -7.3370    1.6700 hc        1 MOL      0.127897
     82 H35         0.4690   -8.3740    1.5110 hc        1 MOL      0.127897
     83 N9          2.0690   -3.5740    2.5650 n         1 MOL     -0.150171
     84 C26         3.1030   -2.5460    2.3730 c3        1 MOL     -0.089636
     85 C27         4.0760   -2.8950    1.1680 c         1 MOL      0.288234
     86 O15         4.8290   -3.8330    1.3520 o         1 MOL     -0.518756
     87 C28         3.8670   -2.2710    3.7190 c3        1 MOL      0.096599
     88 C29         5.1880   -1.4290    3.5710 c3        1 MOL     -0.013779
     89 C30         2.8680   -1.7800    4.8490 c3        1 MOL     -0.483197
     90 C31         4.9340   -0.2010    2.8050 c3        1 MOL     -0.009977
     91 H36         2.2910   -4.3430    3.1760 hn        1 MOL      0.224932
     92 H37         2.6430   -1.6060    2.0740 h1        1 MOL      0.097371
     93 H38         4.0600   -3.2460    4.1750 hc        1 MOL      0.012543
     94 H39         5.9920   -1.9940    3.0990 hc        1 MOL      0.014172
     95 H40         5.5400   -1.1860    4.5710 hc        1 MOL      0.014172
     96 H41         2.2160   -2.5980    5.1410 hc        1 MOL      0.129408
     97 H42         3.4880   -1.3160    5.6190 hc        1 MOL      0.129408
     98 H43         2.2280   -0.9480    4.5500 hc        1 MOL      0.129408
     99 H44         5.9000    0.1530    2.4540 hc        1 MOL     -0.012549
    100 H45         4.2970   -0.2960    1.9230 hc        1 MOL     -0.012549
    101 H46         4.4560    0.5570    3.4180 hc        1 MOL     -0.012549
    102 N10         3.9660   -2.1760    0.0380 n         1 MOL     -0.015713
    103 C32         4.6970   -2.6010   -1.1980 c3        1 MOL      0.024745
    104 C33         5.8430   -1.6520   -1.4930 c         1 MOL      0.581136
    105 O16         6.5640   -1.8620   -2.4590 o         1 MOL     -0.562805
    106 C34         3.6590   -2.7580   -2.3090 c3        1 MOL     -0.131921
    107 C35         2.3840   -3.4180   -1.8820 c         1 MOL      0.654189
    108 O17         2.4440   -4.6090   -1.5390 o         1 MOL     -0.677517
    109 O18         1.2500   -2.8200   -1.8660 o         1 MOL     -0.677517
    110 H47         3.2710   -1.4540   -0.0560 hn        1 MOL      0.154460
    111 H48         5.2440   -3.5350   -1.0490 h1        1 MOL      0.073293
    112 H49         4.1510   -3.2100   -3.1660 hc        1 MOL      0.025260
    113 H50         3.3970   -1.7690   -2.6660 hc        1 MOL      0.025260
    114 N11         5.9830   -0.5060   -0.8240 n         1 MOL     -0.589110
    115 C36         6.9720    0.5420   -1.0100 c3        1 MOL      0.208280
    116 C37         6.5550    1.9930   -0.6210 c         1 MOL      0.450610
    117 O19         6.1870    2.2020    0.5160 o         1 MOL     -0.529407
    118 C38         8.2980    0.1570   -0.2500 c3        1 MOL     -0.277043
    119 C39         9.2830    1.2730   -0.3160 ca        1 MOL      0.096131
    120 C40         9.7500    1.8930    0.8500 ca        1 MOL     -0.142539
    121 C41         9.8480    1.6260   -1.5520 ca        1 MOL     -0.142539
    122 C42        10.7150    2.8760    0.8110 ca        1 MOL     -0.131831
    123 C43        10.7850    2.6480   -1.6130 ca        1 MOL     -0.131831
    124 C44        11.1280    3.3480   -0.4440 ca        1 MOL     -0.094691
    125 H51         5.2610   -0.2180   -0.1800 hn        1 MOL      0.351654
    126 H52         7.2760    0.5510   -2.0500 h1        1 MOL      0.019192
    127 H53         8.7720   -0.7030   -0.7140 hc        1 MOL      0.123988
    128 H54         8.0690   -0.0850    0.7890 hc        1 MOL      0.123988
    129 H55         9.3920    1.6030    1.8280 ha        1 MOL      0.123276
    130 H56         9.5960    1.1300   -2.4800 ha        1 MOL      0.123276
    131 H57        11.0720    3.3730    1.7030 ha        1 MOL      0.112133
    132 H58        11.2700    2.8980   -2.5440 ha        1 MOL      0.112133
    133 H59        11.9400    4.0520   -0.5690 ha        1 MOL      0.084529
    134 N12         6.6300    3.0460   -1.4690 n         1 MOL     -0.225016
    135 C45         6.5760    4.4650   -1.0260 c3        1 MOL      0.112946
    136 C46         5.2750    4.9310   -0.2370 c         1 MOL      0.345079
    137 O20         5.2430    6.0530    0.2340 o         1 MOL     -0.513333
    138 C47         6.7620    5.3370   -2.3250 c3        1 MOL     -0.201575
    139 C48         7.2630    4.3450   -3.4130 c3        1 MOL      0.004481
    140 C49         6.8450    3.0060   -2.9580 c3        1 MOL     -0.002088
    141 H60         7.4930    4.5980   -0.4480 h1        1 MOL      0.070391
    142 H61         5.7540    5.6150   -2.6350 hc        1 MOL      0.089213
    143 H62         7.3430    6.2370   -2.1410 hc        1 MOL      0.089213
    144 H63         6.8840    4.4750   -4.4190 hc        1 MOL      0.019191
    145 H64         8.3530    4.2570   -3.4170 hc        1 MOL      0.019191
    146 H65         5.9600    2.7320   -3.5220 h1        1 MOL      0.051146
    147 H66         7.5800    2.2710   -3.2830 h1        1 MOL      0.051146
    148 N13         4.3150    3.9920   -0.1170 n         1 MOL     -0.120517
    149 C50         2.9870    4.2870    0.2870 c3        1 MOL     -0.208238
    150 C51         2.7440    4.9560    1.6740 c         1 MOL      0.480161
    151 O21         1.6540    5.4970    1.9400 o         1 MOL     -0.507729
    152 C52         2.0830    3.0420    0.0040 c3        1 MOL     -0.190517
    153 C53         2.3840    1.7890    0.8940 c3        1 MOL     -0.073022
    154 C54         1.5700    0.6240    0.2450 c         1 MOL      0.629846
    155 O22         0.4400    0.3560    0.7620 o         1 MOL     -0.727689
    156 O23         2.0450   -0.0770   -0.6540 o         1 MOL     -0.727689
    157 H67         4.4550    3.0930   -0.5510 hn        1 MOL      0.167144
    158 H68         2.6140    5.0180   -0.4290 h1        1 MOL      0.118515
    159 H69         2.2610    2.8520   -1.0540 hc        1 MOL      0.111282
    160 H70         1.0970    3.4430    0.2220 hc        1 MOL      0.111282
    161 H71         2.0940    2.0280    1.9190 hc        1 MOL      0.051717
    162 H72         3.4500    1.5310    0.9150 hc        1 MOL      0.051717
    163 N14         3.8050    5.0050    2.5160 n         1 MOL     -0.134508
    164 C55         3.6900    5.6180    3.8180 c3        1 MOL     -0.238987
    165 H73         3.0140    5.0290    4.4380 h1        1 MOL      0.098028
    166 H74         4.6720    5.6590    4.2890 h1        1 MOL      0.098028
    167 H75         3.2950    6.6290    3.7110 h1        1 MOL      0.098028
    168 H76         4.5730    4.4530    2.1680 hn        1 MOL      0.202995
    169 Ca1        -0.4780   -1.3690   -0.8570 Ca        1 MOL      1.752055
    170 O24        -0.0650   -0.5040   -3.4550 oh        1 MOL     -0.890350
    171 H77         0.2210   -1.0660   -4.1720 ho        1 MOL      0.421318
    172 H78         0.1270    0.3860   -3.7540 ho        1 MOL      0.421318
    173 O25        -2.4340   -1.3120    0.9910 oh        1 MOL     -0.890350
    174 H79        -3.3620   -1.5480    0.9990 ho        1 MOL      0.421318
    175 H80        -2.3880   -0.5080    1.5040 ho        1 MOL      0.421318
@<TRIPOS>BOND
     1    1    2 1   
     2    1    4 1   
     3    1    5 1   
     4    1    6 1   
     5    2    3 2   
     6    2    7 1   
     7    7    8 1   
     8    7   15 1   
     9    8    9 1   
    10    8   11 1   
    11    8   16 1   
    12    9   10 2   
    13    9   19 1   
    14   11   12 1   
    15   11   17 1   
    16   11   18 1   
    17   12   13 1   
    18   12   14 1   
    19   19   20 1   
    20   19   24 1   
    21   20   21 1   
    22   20   23 1   
    23   20   25 1   
    24   21   22 2   
    25   21   29 1   
    26   23   26 1   
    27   23   27 1   
    28   23   28 1   
    29   29   30 1   
    30   29   37 1   
    31   30   31 1   
    32   30   33 1   
    33   30   38 1   
    34   31   32 2   
    35   31   41 1   
    36   33   34 1   
    37   33   39 1   
    38   33   40 1   
    39   34   35 1   
    40   34   36 1   
    41   41   42 1   
    42   41   45 1   
    43   42   43 1   
    44   42   46 1   
    45   42   47 1   
    46   43   44 2   
    47   43   48 1   
    48   48   49 1   
    49   48   56 1   
    50   49   50 1   
    51   49   52 1   
    52   49   57 1   
    53   50   51 2   
    54   50   62 1   
    55   52   53 1   
    56   52   58 1   
    57   52   59 1   
    58   53   54 1   
    59   53   55 2   
    60   54   60 1   
    61   54   61 1   
    62   62   63 1   
    63   62   66 1   
    64   63   64 1   
    65   63   67 1   
    66   63   68 1   
    67   64   65 2   
    68   64   69 1   
    69   69   70 1   
    70   69   76 1   
    71   70   71 1   
    72   70   73 1   
    73   70   77 1   
    74   71   72 2   
    75   71   83 1   
    76   73   74 1   
    77   73   75 1   
    78   73   78 1   
    79   74   80 1   
    80   74   81 1   
    81   74   82 1   
    82   75   79 1   
    83   83   84 1   
    84   83   91 1   
    85   84   85 1   
    86   84   87 1   
    87   84   92 1   
    88   85   86 2   
    89   85  102 1   
    90   87   88 1   
    91   87   89 1   
    92   87   93 1   
    93   88   90 1   
    94   88   94 1   
    95   88   95 1   
    96   89   96 1   
    97   89   97 1   
    98   89   98 1   
    99   90   99 1   
   100   90  100 1   
   101   90  101 1   
   102  102  103 1   
   103  102  110 1   
   104  103  104 1   
   105  103  106 1   
   106  103  111 1   
   107  104  105 2   
   108  104  114 1   
   109  106  107 1   
   110  106  112 1   
   111  106  113 1   
   112  107  108 1   
   113  107  109 1   
   114  114  115 1   
   115  114  125 1   
   116  115  116 1   
   117  115  118 1   
   118  115  126 1   
   119  116  117 2   
   120  116  134 1   
   121  118  119 1   
   122  118  127 1   
   123  118  128 1   
   124  119  120 ar  
   125  119  121 ar  
   126  120  122 ar  
   127  120  129 1   
   128  121  123 ar  
   129  121  130 1   
   130  122  124 ar  
   131  122  131 1   
   132  123  124 ar  
   133  123  132 1   
   134  124  133 1   
   135  134  135 1   
   136  134  140 1   
   137  135  136 1   
   138  135  138 1   
   139  135  141 1   
   140  136  137 2   
   141  136  148 1   
   142  138  139 1   
   143  138  142 1   
   144  138  143 1   
   145  139  140 1   
   146  139  144 1   
   147  139  145 1   
   148  140  146 1   
   149  140  147 1   
   150  148  149 1   
   151  148  157 1   
   152  149  150 1   
   153  149  152 1   
   154  149  158 1   
   155  150  151 2   
   156  150  163 1   
   157  152  153 1   
   158  152  159 1   
   159  152  160 1   
   160  153  154 1   
   161  153  161 1   
   162  153  162 1   
   163  154  155 1   
   164  154  156 1   
   165  163  164 1   
   166  163  168 1   
   167  164  165 1   
   168  164  166 1   
   169  164  167 1   
   170  170  171 1   
   171  170  172 1   
   172  173  174 1   
   173  173  175 1   
@<TRIPOS>SUBSTRUCTURE
     1 MOL         1 TEMP              0 ****  ****    0 ROOT
