@<TRIPOS>MOLECULE
MOL
  178   175     1     0     0
SMALL
resp


@<TRIPOS>ATOM
      1 C1          4.7430   -2.3640    2.8890 c3        1 MOL     -0.308160
      2 C2          5.8620   -1.4460    2.3550 c         1 MOL      0.707662
      3 O1          5.6860   -0.2580    2.1090 o         1 MOL     -0.596938
      4 H1          5.0790   -2.8500    3.8050 hc        1 MOL      0.074071
      5 H2          3.8540   -1.7710    3.0980 hc        1 MOL      0.074071
      6 H3          4.5070   -3.1230    2.1420 hc        1 MOL      0.074071
      7 N1          7.0920   -1.8820    2.5280 n         1 MOL     -0.525475
      8 C3          8.2850   -1.0270    2.5390 c3        1 MOL      0.191074
      9 C4          8.6520   -0.7490    1.1190 c         1 MOL      0.350357
     10 O2          9.1230   -1.6680    0.3510 o         1 MOL     -0.527353
     11 C5          9.5200   -1.7200    3.2160 c3        1 MOL     -0.353465
     12 C6         10.8270   -0.9670    3.1670 c         1 MOL      0.821640
     13 O3         11.8810   -1.5880    3.4190 o         1 MOL     -0.746310
     14 O4         10.9010    0.2940    3.0480 o         1 MOL     -0.746310
     15 H4          7.1220   -2.8570    2.7910 hn        1 MOL      0.300921
     16 H5          8.2070   -0.0890    3.0970 h1        1 MOL      0.032540
     17 H6          9.5540   -2.7100    2.7590 hc        1 MOL      0.063499
     18 H7          9.2480   -1.9170    4.2570 hc        1 MOL      0.063499
     19 N2          8.5940    0.4920    0.6940 n         1 MOL     -0.181765
     20 C7          8.8360    0.9720   -0.7130 c3        1 MOL      0.038695
     21 C8          7.5230    0.7920   -1.5510 c         1 MOL      0.587707
     22 O5          7.5670    0.6210   -2.7770 o         1 MOL     -0.594034
     23 C9          9.4580    2.3930   -0.6770 c3        1 MOL     -0.295421
     24 H8          8.3160    1.1410    1.4210 hn        1 MOL      0.196448
     25 H9          9.5960    0.3410   -1.1820 h1        1 MOL      0.117317
     26 H10         8.8610    3.0840   -0.0880 hc        1 MOL      0.081340
     27 H11        10.3910    2.2580   -0.1310 hc        1 MOL      0.081340
     28 H12         9.6450    2.8100   -1.6750 hc        1 MOL      0.081340
     29 N3          6.4100    0.4500   -0.9390 n         1 MOL     -0.640664
     30 C10         5.2220   -0.1580   -1.4530 c3        1 MOL      0.290207
     31 C11         4.6020    0.4520   -2.7770 c         1 MOL      0.384396
     32 O6          3.9410   -0.2970   -3.5290 o         1 MOL     -0.506059
     33 C12         5.5350   -1.6550   -1.3410 c3        1 MOL     -0.089119
     34 C13         4.2500   -2.5430   -1.2800 c         1 MOL      0.748773
     35 O7          4.1420   -3.5530   -2.0210 o         1 MOL     -0.783265
     36 O8          3.3250   -2.1940   -0.5550 o         1 MOL     -0.783265
     37 H13         6.5360    0.3930    0.0640 hn        1 MOL      0.275646
     38 H14         4.5880    0.1050   -0.6100 h1        1 MOL      0.031794
     39 H15         6.1470   -1.8900   -0.4730 hc        1 MOL      0.025298
     40 H16         6.0650   -1.8630   -2.2660 hc        1 MOL      0.025298
     41 N4          4.8870    1.6770   -3.0900 n         1 MOL     -0.070586
     42 C14         4.4630    2.5650   -4.2220 c3        1 MOL     -0.399526
     43 C15         2.9200    2.8400   -4.3620 c         1 MOL      0.577515
     44 O9          2.4600    3.3030   -5.4330 o         1 MOL     -0.588550
     45 H17         5.6010    2.0310   -2.4790 hn        1 MOL      0.163607
     46 H18         5.0190    2.1570   -5.0680 h1        1 MOL      0.170193
     47 H19         4.8740    3.5310   -3.9300 h1        1 MOL      0.170193
     48 N5          2.1200    2.6360   -3.3680 n         1 MOL     -0.217592
     49 C16         0.6970    2.7910   -3.3820 c3        1 MOL     -0.025310
     50 C17         0.2210    3.9940   -2.6310 c         1 MOL      0.414379
     51 O10         0.7510    4.3240   -1.5450 o         1 MOL     -0.516345
     52 C18         0.1270    1.4820   -2.6840 c3        1 MOL     -0.032949
     53 C19        -1.3870    1.2660   -2.8810 c         1 MOL      0.556622
     54 N6         -1.9150    0.2550   -2.2860 n         1 MOL     -0.673950
     55 O11        -2.0000    1.9710   -3.6780 o         1 MOL     -0.599031
     56 H20         2.5160    2.2140   -2.5380 hn        1 MOL      0.107028
     57 H21         0.3520    2.7970   -4.4200 h1        1 MOL      0.063158
     58 H22         0.4540    1.5000   -1.6420 hc        1 MOL      0.107661
     59 H23         0.5580    0.5750   -3.1010 hc        1 MOL      0.107661
     60 H24        -1.2620   -0.3750   -1.8410 hn        1 MOL      0.342259
     61 H25        -2.8720    0.0300   -2.4860 hn        1 MOL      0.342259
     62 N7         -0.8180    4.7210   -3.0550 n         1 MOL     -0.250892
     63 C20        -1.1200    6.0880   -2.5550 c3        1 MOL     -0.133438
     64 C21        -2.1350    6.0180   -1.3140 c         1 MOL      0.613136
     65 O12        -3.1170    5.2260   -1.5010 o         1 MOL     -0.503754
     66 H26        -1.3420    4.3020   -3.8070 hn        1 MOL      0.264194
     67 H27        -1.5010    6.6890   -3.3830 h1        1 MOL      0.070139
     68 H28        -0.1520    6.4480   -2.1990 h1        1 MOL      0.070139
     69 N8         -1.8240    6.6600   -0.2050 n         1 MOL     -0.583669
     70 C22        -2.8260    6.6100    0.8630 c3        1 MOL     -0.104869
     71 C23        -2.6580    5.3500    1.7580 c         1 MOL      0.467140
     72 O13        -3.5830    5.0250    2.4400 o         1 MOL     -0.549148
     73 C24        -2.8730    7.9450    1.6790 c3        1 MOL      0.498897
     74 C25        -1.6870    8.0750    2.6120 c3        1 MOL     -0.379158
     75 O14        -2.9030    9.0970    0.8140 oh        1 MOL     -0.626836
     76 H29        -1.0450    7.2910   -0.0580 hn        1 MOL      0.328690
     77 H30        -3.7460    6.5730    0.2780 h1        1 MOL      0.117572
     78 H31        -3.8380    7.8380    2.1870 h1        1 MOL      0.007977
     79 H32        -2.0090    9.1300    0.4710 ho        1 MOL      0.370338
     80 H33        -1.4990    9.1380    2.7610 hc        1 MOL      0.084165
     81 H34        -2.0040    7.7120    3.5890 hc        1 MOL      0.084165
     82 H35        -0.7680    7.6460    2.2200 hc        1 MOL      0.084165
     83 N9         -1.4920    4.6900    1.7380 n         1 MOL     -0.153977
     84 C26        -1.1810    3.5600    2.5050 c3        1 MOL     -0.091068
     85 C27        -1.0130    2.2200    1.6590 c         1 MOL      0.560415
     86 O15        -0.1490    2.1940    0.7590 o         1 MOL     -0.480119
     87 C28         0.0480    4.0130    3.3720 c3        1 MOL      0.141002
     88 C29        -0.2920    5.0640    4.4840 c3        1 MOL     -0.152633
     89 C30         0.6690    2.8050    4.1200 c3        1 MOL     -0.146279
     90 C31        -1.3230    4.6690    5.5840 c3        1 MOL      0.013471
     91 H36        -0.8710    5.0860    1.0460 hn        1 MOL      0.191869
     92 H37        -1.9400    3.2920    3.2490 h1        1 MOL      0.065163
     93 H38         0.8540    4.4250    2.7660 hc        1 MOL      0.019806
     94 H39        -0.6810    5.9340    3.9580 hc        1 MOL      0.038768
     95 H40         0.6940    5.3210    4.9000 hc        1 MOL      0.038768
     96 H41        -0.1310    2.2110    4.5680 hc        1 MOL      0.038502
     97 H42         1.1190    2.0110    3.5370 hc        1 MOL      0.038502
     98 H43         1.3750    3.3470    4.7530 hc        1 MOL      0.038502
     99 H44        -2.3230    4.4760    5.2110 hc        1 MOL      0.000180
    100 H45        -0.8980    3.8330    6.1460 hc        1 MOL      0.000180
    101 H46        -1.4120    5.4720    6.3070 hc        1 MOL      0.000180
    102 N10        -1.8820    1.1560    1.8620 n         1 MOL     -0.568058
    103 C32        -1.7310    0.0490    0.9480 c3        1 MOL      0.142950
    104 C33        -3.1170   -0.5100    0.6060 c         1 MOL      0.598366
    105 O16        -3.2270   -1.6270    0.1030 o         1 MOL     -0.513323
    106 C34        -0.7000   -1.0120    1.4840 c3        1 MOL     -0.419490
    107 C35        -0.1580   -1.9540    0.4250 c         1 MOL      0.940033
    108 O17         0.0580   -1.5160   -0.6960 o         1 MOL     -0.805472
    109 O18         0.1670   -3.1340    0.7580 o         1 MOL     -0.805472
    110 H47        -2.4180    1.0250    2.7120 hn        1 MOL      0.330257
    111 H48        -1.3950    0.4570   -0.0060 h1        1 MOL      0.019110
    112 H49        -1.0130   -1.6100    2.3350 hc        1 MOL      0.141426
    113 H50         0.1650   -0.4760    1.8590 hc        1 MOL      0.141426
    114 N11        -4.2220    0.2070    0.8320 n         1 MOL     -0.523141
    115 C36        -5.5930   -0.0880    0.2590 c3        1 MOL      0.309374
    116 C37        -6.1330   -1.4350    0.7660 c         1 MOL      0.186547
    117 O19        -6.2240   -1.6100    1.9930 o         1 MOL     -0.466983
    118 C38        -6.4900    1.1410    0.6180 c3        1 MOL     -0.157657
    119 C39        -7.7570    1.0850   -0.1650 ca        1 MOL      0.096819
    120 C40        -7.8200    1.5920   -1.4850 ca        1 MOL     -0.160920
    121 C41        -8.8260    0.3570    0.3070 ca        1 MOL     -0.160920
    122 C42        -8.8520    1.2500   -2.3110 ca        1 MOL     -0.138505
    123 C43        -9.9090   -0.0320   -0.5180 ca        1 MOL     -0.138505
    124 C44        -9.8980    0.4530   -1.8230 ca        1 MOL     -0.089389
    125 H51        -4.1520    0.9800    1.4770 hn        1 MOL      0.252906
    126 H52        -5.5290   -0.0800   -0.8240 h1        1 MOL     -0.006588
    127 H53        -6.0510    2.0910    0.3220 hc        1 MOL      0.078733
    128 H54        -6.8570    1.1370    1.6460 hc        1 MOL      0.078733
    129 H55        -6.9870    2.1150   -1.9390 ha        1 MOL      0.129688
    130 H56        -8.7510   -0.0500    1.3020 ha        1 MOL      0.129688
    131 H57        -8.8940    1.4630   -3.3670 ha        1 MOL      0.120366
    132 H58       -10.6670   -0.7180   -0.1800 ha        1 MOL      0.120366
    133 H59       -10.6800    0.1540   -2.5110 ha        1 MOL      0.087438
    134 N12        -6.5850   -2.2910   -0.1020 n         1 MOL      0.032203
    135 C45        -7.1510   -3.5540    0.2490 c3        1 MOL     -0.081472
    136 C46        -6.2180   -4.5950    0.9180 c         1 MOL      0.327759
    137 O20        -6.6040   -5.5910    1.5400 o         1 MOL     -0.537782
    138 C47        -7.7620   -4.1360   -1.0110 c3        1 MOL      0.050678
    139 C48        -6.7560   -3.6780   -2.0460 c3        1 MOL     -0.008198
    140 C49        -6.4280   -2.3020   -1.5650 c3        1 MOL     -0.201772
    141 H60        -7.9970   -3.4020    0.9140 h1        1 MOL      0.070900
    142 H61        -7.9030   -5.2180   -1.0430 hc        1 MOL      0.017866
    143 H62        -8.7410   -3.7020   -1.1830 hc        1 MOL      0.017866
    144 H63        -5.9020   -4.3530   -1.9840 hc        1 MOL      0.018396
    145 H64        -7.2220   -3.6110   -3.0270 hc        1 MOL      0.018396
    146 H65        -5.3810   -2.1260   -1.8060 h1        1 MOL      0.101164
    147 H66        -7.0550   -1.5500   -2.0570 h1        1 MOL      0.101164
    148 N13        -4.9390   -4.2540    0.8560 n         1 MOL      0.093446
    149 C50        -3.9250   -5.0800    1.4510 c3        1 MOL     -0.358969
    150 C51        -3.6240   -4.6920    2.9280 c         1 MOL      0.493755
    151 O21        -2.8820   -5.3970    3.5390 o         1 MOL     -0.535023
    152 C52        -2.5890   -5.0250    0.6890 c3        1 MOL      0.184728
    153 C53        -2.4950   -5.8650   -0.5740 c3        1 MOL     -0.255322
    154 C54        -1.2380   -5.4500   -1.2540 c         1 MOL      0.662739
    155 O22        -0.2180   -6.1370   -1.0690 o         1 MOL     -0.720226
    156 O23        -1.2280   -4.4540   -1.9830 o         1 MOL     -0.720226
    157 H67        -4.7080   -3.3460    0.4800 hn        1 MOL      0.150275
    158 H68        -4.2530   -6.1160    1.4420 h1        1 MOL      0.152458
    159 H69        -1.8540   -5.4600    1.3690 hc        1 MOL      0.022938
    160 H70        -2.1810   -4.0390    0.4550 hc        1 MOL      0.022938
    161 H71        -3.4040   -5.5920   -1.1080 hc        1 MOL      0.045815
    162 H72        -2.4940   -6.9280   -0.3210 hc        1 MOL      0.045815
    163 N14        -4.2430   -3.6180    3.3990 n         1 MOL     -0.172521
    164 C55        -3.8880   -2.9040    4.5960 c3        1 MOL     -0.103813
    165 H73        -2.9100   -3.2410    4.9420 h1        1 MOL      0.052044
    166 H74        -3.8500   -1.8350    4.3840 h1        1 MOL      0.052044
    167 H75        -4.6320   -3.0960    5.3690 h1        1 MOL      0.052044
    168 H76        -4.8700   -3.1620    2.7480 hn        1 MOL      0.133953
    169 Ca1         1.4130   -3.9420   -1.4350 Ca        1 MOL      1.734286
    170 O24         1.0720   -2.6810   -3.6640 oh        1 MOL     -0.838203
    171 H77         0.2430   -2.7870   -4.1470 ho        1 MOL      0.412363
    172 H78         1.6480   -2.2320   -4.2830 ho        1 MOL      0.412363
    173 O25         2.2450   -5.8260   -3.0380 oh        1 MOL     -0.838203
    174 H79         2.2510   -6.7500   -3.2840 ho        1 MOL      0.412363
    175 H80         3.1230   -5.5160   -3.2240 ho        1 MOL      0.412363
    176 O26         2.4810   -5.7300    0.3460 oh        1 MOL     -0.838203
    177 H81         3.3130   -6.0110    0.7170 ho        1 MOL      0.412363
    178 H82         1.9100   -5.6080    1.1070 ho        1 MOL      0.412363
@<TRIPOS>BOND
     1    1    2 1   
     2    1    4 1   
     3    1    5 1   
     4    1    6 1   
     5    2    3 2   
     6    2    7 1   
     7    7    8 1   
     8    7   15 1   
     9    8    9 1   
    10    8   11 1   
    11    8   16 1   
    12    9   10 2   
    13    9   19 1   
    14   11   12 1   
    15   11   17 1   
    16   11   18 1   
    17   12   13 1   
    18   12   14 1   
    19   19   20 1   
    20   19   24 1   
    21   20   21 1   
    22   20   23 1   
    23   20   25 1   
    24   21   22 2   
    25   21   29 1   
    26   23   26 1   
    27   23   27 1   
    28   23   28 1   
    29   29   30 1   
    30   29   37 1   
    31   30   31 1   
    32   30   33 1   
    33   30   38 1   
    34   31   32 2   
    35   31   41 1   
    36   33   34 1   
    37   33   39 1   
    38   33   40 1   
    39   34   35 1   
    40   34   36 1   
    41   41   42 1   
    42   41   45 1   
    43   42   43 1   
    44   42   46 1   
    45   42   47 1   
    46   43   44 2   
    47   43   48 1   
    48   48   49 1   
    49   48   56 1   
    50   49   50 1   
    51   49   52 1   
    52   49   57 1   
    53   50   51 2   
    54   50   62 1   
    55   52   53 1   
    56   52   58 1   
    57   52   59 1   
    58   53   54 1   
    59   53   55 2   
    60   54   60 1   
    61   54   61 1   
    62   62   63 1   
    63   62   66 1   
    64   63   64 1   
    65   63   67 1   
    66   63   68 1   
    67   64   65 2   
    68   64   69 1   
    69   69   70 1   
    70   69   76 1   
    71   70   71 1   
    72   70   73 1   
    73   70   77 1   
    74   71   72 2   
    75   71   83 1   
    76   73   74 1   
    77   73   75 1   
    78   73   78 1   
    79   74   80 1   
    80   74   81 1   
    81   74   82 1   
    82   75   79 1   
    83   83   84 1   
    84   83   91 1   
    85   84   85 1   
    86   84   87 1   
    87   84   92 1   
    88   85   86 2   
    89   85  102 1   
    90   87   88 1   
    91   87   89 1   
    92   87   93 1   
    93   88   90 1   
    94   88   94 1   
    95   88   95 1   
    96   89   96 1   
    97   89   97 1   
    98   89   98 1   
    99   90   99 1   
   100   90  100 1   
   101   90  101 1   
   102  102  103 1   
   103  102  110 1   
   104  103  104 1   
   105  103  106 1   
   106  103  111 1   
   107  104  105 2   
   108  104  114 1   
   109  106  107 1   
   110  106  112 1   
   111  106  113 1   
   112  107  108 1   
   113  107  109 1   
   114  114  115 1   
   115  114  125 1   
   116  115  116 1   
   117  115  118 1   
   118  115  126 1   
   119  116  117 2   
   120  116  134 1   
   121  118  119 1   
   122  118  127 1   
   123  118  128 1   
   124  119  120 ar  
   125  119  121 ar  
   126  120  122 ar  
   127  120  129 1   
   128  121  123 ar  
   129  121  130 1   
   130  122  124 ar  
   131  122  131 1   
   132  123  124 ar  
   133  123  132 1   
   134  124  133 1   
   135  134  135 1   
   136  134  140 1   
   137  135  136 1   
   138  135  138 1   
   139  135  141 1   
   140  136  137 2   
   141  136  148 1   
   142  138  139 1   
   143  138  142 1   
   144  138  143 1   
   145  139  140 1   
   146  139  144 1   
   147  139  145 1   
   148  140  146 1   
   149  140  147 1   
   150  148  149 1   
   151  148  157 1   
   152  149  150 1   
   153  149  152 1   
   154  149  158 1   
   155  150  151 2   
   156  150  163 1   
   157  152  153 1   
   158  152  159 1   
   159  152  160 1   
   160  153  154 1   
   161  153  161 1   
   162  153  162 1   
   163  154  155 1   
   164  154  156 1   
   165  163  164 1   
   166  163  168 1   
   167  164  165 1   
   168  164  166 1   
   169  164  167 1   
   170  170  171 1   
   171  170  172 1   
   172  173  174 1   
   173  173  175 1   
   174  176  177 1   
   175  176  178 1   
@<TRIPOS>SUBSTRUCTURE
     1 MOL         1 TEMP              0 ****  ****    0 ROOT
