@<TRIPOS>MOLECULE
MOL
  192   187     1     0     0
SMALL
resp


@<TRIPOS>ATOM
      1 C1         -5.5620   -2.9060    5.5660 c3        1 MOL     -0.264792
      2 C2         -4.8860   -2.4670    4.2340 c         1 MOL      0.736662
      3 O1         -4.5190   -3.2390    3.3940 o         1 MOL     -0.569344
      4 H1         -5.0030   -2.4980    6.4090 hc        1 MOL      0.068076
      5 H2         -6.5860   -2.5320    5.5960 hc        1 MOL      0.068076
      6 H3         -5.5700   -3.9940    5.6290 hc        1 MOL      0.068076
      7 N1         -5.0230   -1.1480    3.9690 n         1 MOL     -0.633819
      8 C3         -4.8970   -0.5510    2.6090 c3        1 MOL      0.224874
      9 C4         -3.4560   -0.6180    2.0220 c         1 MOL     -0.175649
     10 O2         -3.1510    0.0150    0.9730 o         1 MOL      0.028209
     11 C5         -5.4800    0.8440    2.4980 c3        1 MOL      0.031786
     12 C6         -5.3310    1.5760    3.8090 c         1 MOL      0.583698
     13 O3         -6.1480    1.2340    4.6970 o         1 MOL     -0.673047
     14 O4         -4.3960    2.4290    4.0790 o         1 MOL     -0.673047
     15 H4         -5.3520   -0.5910    4.7320 hn        1 MOL      0.339045
     16 H5         -5.4220   -1.2440    1.9420 h1        1 MOL      0.127230
     17 H6         -6.5150    0.6410    2.2270 hc        1 MOL      0.010263
     18 H7         -4.9900    1.4340    1.7350 hc        1 MOL      0.010263
     19 N2         -2.5080   -1.2750    2.6880 n         1 MOL     -0.121826
     20 C7         -1.0280   -1.3240    2.4620 c3        1 MOL      0.118107
     21 C8         -0.6430   -2.5060    1.6500 c         1 MOL      0.379079
     22 O5         -1.0010   -3.6280    1.9090 o         1 MOL     -0.498775
     23 C9         -0.2160   -1.1530    3.8210 c3        1 MOL     -0.215297
     24 C10        -0.0360    0.3560    4.2420 c3        1 MOL     -0.188238
     25 C11        -1.3830    1.1280    4.4500 c3        1 MOL      0.054590
     26 C12        -1.0490    2.6120    4.7990 c3        1 MOL      0.181690
     27 N3         -2.1670    3.2620    5.5070 n4        1 MOL     -0.373901
     28 H8         -2.8490   -1.9190    3.3880 hn        1 MOL      0.205614
     29 H9         -0.7340   -0.4210    1.9340 h1        1 MOL     -0.022227
     30 H10         0.7780   -1.5980    3.7520 hc        1 MOL      0.116058
     31 H11        -0.7760   -1.6850    4.5890 hc        1 MOL      0.116058
     32 H12         0.5900    0.8620    3.5190 hc        1 MOL      0.070507
     33 H13         0.5220    0.3730    5.1850 hc        1 MOL      0.070507
     34 H14        -1.9050    0.6750    5.2890 hc        1 MOL      0.001005
     35 H15        -2.0280    1.1480    3.5710 hc        1 MOL      0.001005
     36 H16        -0.8600    3.1810    3.8850 hx        1 MOL      0.016739
     37 H17        -0.2230    2.5920    5.5020 hx        1 MOL      0.016739
     38 H18        -2.1330    4.2660    5.3980 hn        1 MOL      0.300009
     39 H19        -3.0470    2.8440    5.2250 hn        1 MOL      0.300009
     40 H20        -2.1020    3.0200    6.4850 hn        1 MOL      0.300009
     41 N4          0.2160   -2.4740    0.6450 n         1 MOL     -0.121613
     42 C13         0.9170   -1.3870   -0.0270 c3        1 MOL     -0.584338
     43 C14         1.3830   -0.2540    0.8320 c         1 MOL      0.688875
     44 O6          0.8990    0.8170    0.8780 o         1 MOL     -0.584875
     45 C15         0.1030   -0.9610   -1.2960 c3        1 MOL     -0.092135
     46 C16        -0.1240   -2.2040   -2.1230 c         1 MOL      0.554939
     47 O7          0.6690   -3.1410   -1.9810 o         1 MOL     -0.688036
     48 O8         -1.0790   -2.3450   -2.8500 o         1 MOL     -0.688036
     49 H21         0.3370   -3.4230    0.3300 hn        1 MOL      0.210357
     50 H22         1.8640   -1.7760   -0.4040 h1        1 MOL      0.168220
     51 H23         0.6610   -0.2170   -1.8630 hc        1 MOL      0.145018
     52 H24        -0.8330   -0.4800   -1.0300 hc        1 MOL      0.145018
     53 N5          2.3230   -0.4200    1.7820 n         1 MOL     -0.228526
     54 C17         3.2030   -1.5320    1.8350 c3        1 MOL     -0.025066
     55 C18         4.2580   -1.3130    2.9320 c         1 MOL      0.560583
     56 O9          4.1640   -0.3560    3.6670 o         1 MOL     -0.544753
     57 H25         2.6300    0.4220    2.2300 hn        1 MOL      0.233104
     58 H26         3.7570   -1.5430    0.9080 h1        1 MOL      0.044153
     59 H27         2.7100   -2.4690    2.1320 h1        1 MOL      0.044153
     60 N6          5.3140   -2.1720    3.0880 n         1 MOL     -0.518982
     61 C19         5.8500   -3.1440    2.1420 c3        1 MOL      0.098561
     62 C20         6.9610   -2.4010    1.2820 c         1 MOL      0.493226
     63 O10         7.8220   -1.7240    1.8690 o         1 MOL     -0.417452
     64 C21         6.3210   -4.3850    2.9080 c3        1 MOL     -0.104696
     65 C22         7.4250   -4.1660    3.8900 c         1 MOL      0.636171
     66 O11         8.5360   -4.6870    3.5960 o         1 MOL     -0.647868
     67 O12         7.2580   -3.3340    4.8390 o         1 MOL     -0.647868
     68 H28         5.8680   -2.0730    3.9290 hn        1 MOL      0.311386
     69 H29         5.1190   -3.3850    1.3710 h1        1 MOL     -0.035532
     70 H30         6.7590   -5.0610    2.1690 hc        1 MOL      0.004361
     71 H31         5.4610   -4.7730    3.4430 hc        1 MOL      0.004361
     72 N7          6.9270   -2.6700   -0.0660 n         1 MOL     -0.305364
     73 C23         7.8960   -2.1810   -1.1440 c3        1 MOL     -0.178677
     74 C24         7.8870   -0.6060   -1.3200 c         1 MOL      0.514870
     75 O13         8.8680    0.0490   -1.4870 o         1 MOL     -0.532387
     76 H32         6.2880   -3.3620   -0.4260 hn        1 MOL      0.237603
     77 H33         7.4340   -2.4870   -2.0740 h1        1 MOL      0.109977
     78 H34         8.8440   -2.7270   -1.1280 h1        1 MOL      0.109977
     79 N8          6.7390    0.0130   -1.3180 n         1 MOL     -0.360860
     80 C25         6.4500    1.4930   -1.5520 c3        1 MOL      0.017111
     81 C26         5.0900    1.8240   -0.9660 c         1 MOL      0.354576
     82 O14         4.1630    1.0110   -0.8190 o         1 MOL     -0.403597
     83 C27         6.4680    1.9340   -2.9370 c3        1 MOL      0.177866
     84 C28         6.4550    3.4720   -3.1330 c3        1 MOL     -0.289828
     85 O15         5.3680    1.3940   -3.6370 oh        1 MOL     -0.544989
     86 H35         5.9940   -0.6620   -1.2330 hn        1 MOL      0.185216
     87 H36         7.1630    2.1370   -1.0290 h1        1 MOL      0.138865
     88 H37         7.4340    1.7180   -3.3970 h1        1 MOL      0.068791
     89 H38         5.7070    0.5280   -3.8780 ho        1 MOL      0.382920
     90 H39         6.5730    3.6700   -4.1970 hc        1 MOL      0.096975
     91 H40         5.4950    3.9240   -2.8700 hc        1 MOL      0.096975
     92 H41         7.3170    3.9410   -2.6820 hc        1 MOL      0.096975
     93 N9          4.9910    3.0000   -0.3990 n         1 MOL     -0.278922
     94 C29         3.7180    3.5240    0.1480 c3        1 MOL     -0.031578
     95 C30         2.6340    3.9820   -0.8690 c         1 MOL      0.315979
     96 O16         1.7890    4.8380   -0.5690 o         1 MOL     -0.492925
     97 C31         4.0030    4.6430    1.1920 c3        1 MOL      0.168885
     98 C32         4.7500    5.7870    0.4760 c3        1 MOL      0.141646
     99 C33         4.9700    4.1910    2.3640 c3        1 MOL     -0.431889
    100 C34         4.4610    7.1380    1.0690 c3        1 MOL     -0.180265
    101 H42         5.7650    3.6470   -0.5270 hn        1 MOL      0.173194
    102 H43         3.3040    2.6520    0.6600 h1        1 MOL      0.124470
    103 H44         3.0330    4.9730    1.5580 hc        1 MOL      0.012603
    104 H45         4.5780    5.8410   -0.6000 hc        1 MOL     -0.013742
    105 H46         5.8300    5.6850    0.5520 hc        1 MOL     -0.013742
    106 H47         4.8960    4.9800    3.1020 hc        1 MOL      0.114742
    107 H48         4.6530    3.2160    2.7220 hc        1 MOL      0.114742
    108 H49         6.0220    4.2200    2.0860 hc        1 MOL      0.114742
    109 H50         4.9010    7.8960    0.4280 hc        1 MOL      0.037544
    110 H51         3.3890    7.3100    1.1600 hc        1 MOL      0.037544
    111 H52         4.9080    7.3220    2.0520 hc        1 MOL      0.037544
    112 N10         2.6510    3.4010   -2.0200 n         1 MOL     -0.096124
    113 C35         1.5080    3.2610   -2.9510 c3        1 MOL     -0.065668
    114 C36         0.2810    2.5720   -2.3620 c         1 MOL      0.458190
    115 O17        -0.4310    1.8030   -2.9580 o         1 MOL     -0.510070
    116 C37         1.9900    2.5070   -4.2080 c3        1 MOL      0.288711
    117 C38         2.2130    1.0130   -4.0310 c3        1 MOL     -0.307823
    118 O18         3.1870    3.0270   -4.7050 oh        1 MOL     -0.579358
    119 H53         3.4430    2.7850   -2.1370 hn        1 MOL      0.082520
    120 H54         1.0740    4.2180   -3.2320 h1        1 MOL      0.119986
    121 H55         1.3540    2.5680   -5.0970 h1        1 MOL      0.051168
    122 H56         3.8410    2.3530   -4.5010 ho        1 MOL      0.351403
    123 H57         2.8330    0.6510   -4.8600 hc        1 MOL      0.076344
    124 H58         2.7720    0.8470   -3.1120 hc        1 MOL      0.076344
    125 H59         1.3180    0.4160   -3.8620 hc        1 MOL      0.076344
    126 N11        -0.2730    3.0460   -1.2300 n         1 MOL     -0.260912
    127 C39        -1.5710    2.4760   -0.6440 c3        1 MOL     -0.508207
    128 C40        -2.8000    2.6540   -1.5000 c         1 MOL      0.627269
    129 O19        -2.8690    3.5000   -2.4490 o         1 MOL     -0.534027
    130 C41        -1.7220    3.0950    0.7740 c3        1 MOL      0.784925
    131 C42        -2.1040    4.5870    0.7430 c3        1 MOL     -0.577565
    132 O20        -0.5960    2.9280    1.6200 oh        1 MOL     -0.626973
    133 H60         0.2250    3.8040   -0.7830 hn        1 MOL      0.196738
    134 H61        -1.4420    1.4190   -0.4030 h1        1 MOL      0.190780
    135 H62        -2.4960    2.5110    1.2660 h1        1 MOL     -0.160913
    136 H63        -0.2540    2.0750    1.3300 ho        1 MOL      0.375704
    137 H64        -3.1200    4.6390    0.3590 hc        1 MOL      0.144310
    138 H65        -2.1250    4.9970    1.7470 hc        1 MOL      0.144310
    139 H66        -1.4420    5.1260    0.0660 hc        1 MOL      0.144310
    140 N12        -3.7870    1.8160   -1.1730 n         1 MOL     -0.122028
    141 C43        -5.0000    1.5920   -1.9960 c3        1 MOL     -0.293014
    142 C44        -5.2910    0.1410   -2.2010 c         1 MOL      0.663545
    143 O21        -5.9060   -0.2430   -3.1770 o         1 MOL     -0.598420
    144 C45        -6.2470    2.2310   -1.2960 c3        1 MOL     -0.035386
    145 C46        -6.1900    3.7550   -1.0220 c3        1 MOL      0.043500
    146 C47        -6.2220    4.8240   -2.1950 c3        1 MOL     -0.019910
    147 C48        -6.1650    6.2730   -1.5810 c3        1 MOL      0.065489
    148 N13        -7.3610    6.5970   -0.8390 n4        1 MOL     -0.356356
    149 H67        -3.6160    1.1510   -0.4440 hn        1 MOL      0.054348
    150 H68        -4.7630    2.0410   -2.9670 h1        1 MOL      0.143848
    151 H69        -6.4000    1.6170   -0.4090 hc        1 MOL      0.049259
    152 H70        -7.1120    1.9510   -1.8980 hc        1 MOL      0.049259
    153 H71        -5.3440    3.9460   -0.3650 hc        1 MOL     -0.044434
    154 H72        -7.0970    3.9580   -0.4550 hc        1 MOL     -0.044434
    155 H73        -7.0550    4.7790   -2.8850 hc        1 MOL      0.041316
    156 H74        -5.3080    4.6400   -2.7740 hc        1 MOL      0.041316
    157 H75        -6.0940    6.9290   -2.4580 hx        1 MOL      0.064480
    158 H76        -5.2690    6.4120   -0.9770 hx        1 MOL      0.064480
    159 H77        -8.1410    6.5030   -1.4680 hn        1 MOL      0.310870
    160 H78        -7.5370    5.8710   -0.1590 hn        1 MOL      0.310870
    161 H79        -7.2210    7.4840   -0.3660 hn        1 MOL      0.310870
    162 N14        -4.7650   -0.7220   -1.3080 n         1 MOL     -0.063863
    163 C49        -4.8900   -2.1890   -1.3600 c3        1 MOL     -0.049066
    164 C50        -6.3070   -2.5240   -0.8760 c         1 MOL      0.402890
    165 O22        -6.8030   -1.9400    0.0870 o         1 MOL     -0.516229
    166 C51        -3.7930   -2.9420   -0.6020 c3        1 MOL      0.272554
    167 C52        -3.7960   -4.4060   -0.7070 c3        1 MOL     -0.504218
    168 C53        -3.8170   -4.9860   -2.1380 c         1 MOL      0.988942
    169 O23        -4.9650   -5.2710   -2.5650 o         1 MOL     -0.837950
    170 O24        -2.8010   -5.4140   -2.6300 o         1 MOL     -0.837950
    171 H80        -4.1700   -0.3760   -0.5720 hn        1 MOL     -0.130510
    172 H81        -4.8140   -2.4700   -2.4090 h1        1 MOL     -0.002706
    173 H82        -3.8680   -2.6760    0.4550 hc        1 MOL     -0.015253
    174 H83        -2.7950   -2.6400   -0.9050 hc        1 MOL     -0.015253
    175 H84        -4.7110   -4.6350   -0.1770 hc        1 MOL      0.126952
    176 H85        -2.9660   -4.8590   -0.1510 hc        1 MOL      0.126952
    177 N15        -6.9820   -3.4470   -1.5820 n         1 MOL     -0.335706
    178 C54        -8.4070   -3.6880   -1.4130 c3        1 MOL      0.036742
    179 H86        -8.8720   -3.8130   -2.3900 h1        1 MOL      0.030833
    180 H87        -8.5560   -4.5910   -0.8220 h1        1 MOL      0.030833
    181 H88        -8.8610   -2.8390   -0.9010 h1        1 MOL      0.030833
    182 H89        -6.4750   -3.9740   -2.2800 hn        1 MOL      0.369691
    183 Ca1        -0.4360   -4.8830   -3.5120 Ca        1 MOL      1.750036
    184 O25         1.9720   -5.6730   -2.7960 oh        1 MOL     -0.858104
    185 H90         2.1780   -5.9510   -1.8970 ho        1 MOL      0.430713
    186 H91         2.7750   -5.2480   -3.1100 ho        1 MOL      0.430713
    187 O26         1.0150   -3.6710   -5.3240 oh        1 MOL     -0.858104
    188 H92         1.1290   -3.7510   -6.2690 ho        1 MOL      0.430713
    189 H93         1.5930   -2.9430   -5.0740 ho        1 MOL      0.430713
    190 O27        -2.1740   -3.8340   -5.2450 oh        1 MOL     -0.858104
    191 H94        -3.0210   -4.2780   -5.1730 ho        1 MOL      0.430713
    192 H95        -2.2500   -3.3240   -6.0500 ho        1 MOL      0.430713
@<TRIPOS>BOND
     1    1    2 1   
     2    1    4 1   
     3    1    5 1   
     4    1    6 1   
     5    2    3 2   
     6    2    7 1   
     7    7    8 1   
     8    7   15 1   
     9    8    9 1   
    10    8   11 1   
    11    8   16 1   
    12    9   10 2   
    13    9   19 1   
    14   11   12 1   
    15   11   17 1   
    16   11   18 1   
    17   12   13 1   
    18   12   14 1   
    19   19   20 1   
    20   19   28 1   
    21   20   21 1   
    22   20   23 1   
    23   20   29 1   
    24   21   22 2   
    25   21   41 1   
    26   23   24 1   
    27   23   30 1   
    28   23   31 1   
    29   24   25 1   
    30   24   32 1   
    31   24   33 1   
    32   25   26 1   
    33   25   34 1   
    34   25   35 1   
    35   26   27 1   
    36   26   36 1   
    37   26   37 1   
    38   27   38 1   
    39   27   39 1   
    40   27   40 1   
    41   41   42 1   
    42   41   49 1   
    43   42   43 1   
    44   42   45 1   
    45   42   50 1   
    46   43   44 2   
    47   43   53 1   
    48   45   46 1   
    49   45   51 1   
    50   45   52 1   
    51   46   47 1   
    52   46   48 1   
    53   53   54 1   
    54   53   57 1   
    55   54   55 1   
    56   54   58 1   
    57   54   59 1   
    58   55   56 2   
    59   55   60 1   
    60   60   61 1   
    61   60   68 1   
    62   61   62 1   
    63   61   64 1   
    64   61   69 1   
    65   62   63 2   
    66   62   72 1   
    67   64   65 1   
    68   64   70 1   
    69   64   71 1   
    70   65   66 1   
    71   65   67 1   
    72   72   73 1   
    73   72   76 1   
    74   73   74 1   
    75   73   77 1   
    76   73   78 1   
    77   74   75 2   
    78   74   79 1   
    79   79   80 1   
    80   79   86 1   
    81   80   81 1   
    82   80   83 1   
    83   80   87 1   
    84   81   82 2   
    85   81   93 1   
    86   83   84 1   
    87   83   85 1   
    88   83   88 1   
    89   84   90 1   
    90   84   91 1   
    91   84   92 1   
    92   85   89 1   
    93   93   94 1   
    94   93  101 1   
    95   94   95 1   
    96   94   97 1   
    97   94  102 1   
    98   95   96 2   
    99   95  112 1   
   100   97   98 1   
   101   97   99 1   
   102   97  103 1   
   103   98  100 1   
   104   98  104 1   
   105   98  105 1   
   106   99  106 1   
   107   99  107 1   
   108   99  108 1   
   109  100  109 1   
   110  100  110 1   
   111  100  111 1   
   112  112  113 1   
   113  112  119 1   
   114  113  114 1   
   115  113  116 1   
   116  113  120 1   
   117  114  115 2   
   118  114  126 1   
   119  116  117 1   
   120  116  118 1   
   121  116  121 1   
   122  117  123 1   
   123  117  124 1   
   124  117  125 1   
   125  118  122 1   
   126  126  127 1   
   127  126  133 1   
   128  127  128 1   
   129  127  130 1   
   130  127  134 1   
   131  128  129 2   
   132  128  140 1   
   133  130  131 1   
   134  130  132 1   
   135  130  135 1   
   136  131  137 1   
   137  131  138 1   
   138  131  139 1   
   139  132  136 1   
   140  140  141 1   
   141  140  149 1   
   142  141  142 1   
   143  141  144 1   
   144  141  150 1   
   145  142  143 2   
   146  142  162 1   
   147  144  145 1   
   148  144  151 1   
   149  144  152 1   
   150  145  146 1   
   151  145  153 1   
   152  145  154 1   
   153  146  147 1   
   154  146  155 1   
   155  146  156 1   
   156  147  148 1   
   157  147  157 1   
   158  147  158 1   
   159  148  159 1   
   160  148  160 1   
   161  148  161 1   
   162  162  163 1   
   163  162  171 1   
   164  163  164 1   
   165  163  166 1   
   166  163  172 1   
   167  164  165 2   
   168  164  177 1   
   169  166  167 1   
   170  166  173 1   
   171  166  174 1   
   172  167  168 1   
   173  167  175 1   
   174  167  176 1   
   175  168  169 1   
   176  168  170 1   
   177  177  178 1   
   178  177  182 1   
   179  178  179 1   
   180  178  180 1   
   181  178  181 1   
   182  184  185 1   
   183  184  186 1   
   184  187  188 1   
   185  187  189 1   
   186  190  191 1   
   187  190  192 1   
@<TRIPOS>SUBSTRUCTURE
     1 MOL         1 TEMP              0 ****  ****    0 ROOT
