@<TRIPOS>MOLECULE
MOL
  195   189     1     0     0
SMALL
resp


@<TRIPOS>ATOM
      1 C1         -4.6060   -3.8750    5.6530 c3        1 MOL     -0.367176
      2 C2         -4.2900   -3.0760    4.3840 c         1 MOL      0.759689
      3 O1         -3.7120   -3.6110    3.4610 o         1 MOL     -0.613123
      4 H1         -4.6330   -3.2010    6.5090 hc        1 MOL      0.094706
      5 H2         -5.5760   -4.3610    5.5440 hc        1 MOL      0.094706
      6 H3         -3.8360   -4.6300    5.8090 hc        1 MOL      0.094706
      7 N1         -4.5370   -1.7620    4.3310 n         1 MOL     -0.646105
      8 C3         -4.5500   -0.9360    3.1470 c3        1 MOL      0.552756
      9 C4         -3.2280   -0.6270    2.4390 c         1 MOL      0.116642
     10 O2         -3.2310    0.2290    1.5870 o         1 MOL     -0.511478
     11 C5         -5.2500    0.3820    3.5500 c3        1 MOL     -0.338125
     12 C6         -6.5690    0.2790    4.3970 c         1 MOL      0.754935
     13 O3         -6.5210   -0.0810    5.5670 o         1 MOL     -0.694710
     14 O4         -7.6350    0.6030    3.8400 o         1 MOL     -0.694710
     15 H4         -4.9750   -1.3120    5.1200 hn        1 MOL      0.253685
     16 H5         -5.1880   -1.3950    2.4070 h1        1 MOL     -0.002163
     17 H6         -5.5010    0.9540    2.6590 hc        1 MOL      0.029852
     18 H7         -4.5590    0.9460    4.1780 hc        1 MOL      0.029852
     19 N2         -2.1210   -1.2560    2.8090 n         1 MOL     -0.104875
     20 C7         -0.8040   -0.8930    2.3620 c3        1 MOL     -0.026750
     21 C8          0.0360   -2.1350    1.9690 c         1 MOL      0.499739
     22 O5         -0.0860   -3.2060    2.5230 o         1 MOL     -0.478695
     23 C9         -0.1040   -0.2450    3.5500 c3        1 MOL     -0.101594
     24 C10        -0.5880    1.0900    4.0810 c3        1 MOL     -0.001928
     25 C11         0.2780    1.7530    5.1600 c3        1 MOL      0.055394
     26 C12         0.2190    3.2180    5.0200 c3        1 MOL      0.042218
     27 N3          0.5060    3.8440    6.2830 n4        1 MOL     -0.457786
     28 H8         -2.1790   -1.9760    3.5100 hn        1 MOL      0.187445
     29 H9         -0.9060   -0.2130    1.5280 h1        1 MOL      0.208311
     30 H10         0.9230   -0.0550    3.2360 hc        1 MOL      0.044706
     31 H11        -0.1650   -0.9340    4.3960 hc        1 MOL      0.044706
     32 H12        -1.5860    0.8940    4.4710 hc        1 MOL     -0.002312
     33 H13        -0.6770    1.7880    3.2510 hc        1 MOL     -0.002312
     34 H14         1.3090    1.4310    5.0300 hc        1 MOL      0.011848
     35 H15         0.1010    1.4100    6.1810 hc        1 MOL      0.011848
     36 H16        -0.7670    3.5270    4.6600 hx        1 MOL      0.082772
     37 H17         1.0530    3.4580    4.3630 hx        1 MOL      0.082772
     38 H18         1.3230    3.3350    6.5580 hn        1 MOL      0.355794
     39 H19         0.6350    4.8470    6.2940 hn        1 MOL      0.355794
     40 H20        -0.3090    3.6290    6.8570 hn        1 MOL      0.355794
     41 N4          0.9400   -2.1240    0.9510 n         1 MOL     -0.434900
     42 C13         1.3640   -1.0530    0.0970 c3        1 MOL     -0.262061
     43 C14         1.8270    0.2510    0.8360 c         1 MOL      0.520933
     44 O6          1.2300    1.2780    0.6930 o         1 MOL     -0.556354
     45 C15         0.3380   -0.7160   -0.9920 c3        1 MOL     -0.346745
     46 C16         0.0870   -1.9230   -1.9160 c         1 MOL      1.164855
     47 O7         -1.0040   -2.0780   -2.4820 o         1 MOL     -0.917676
     48 O8          1.0580   -2.6110   -2.2770 o         1 MOL     -0.917676
     49 H21         1.4520   -2.9750    0.7460 hn        1 MOL      0.281626
     50 H22         2.2680   -1.3250   -0.4500 h1        1 MOL      0.156692
     51 H23         0.6830    0.0940   -1.6260 hc        1 MOL      0.125373
     52 H24        -0.5700   -0.4240   -0.4660 hc        1 MOL      0.125373
     53 N5          2.7960    0.2230    1.7670 n         1 MOL     -0.068682
     54 C17         3.7510   -0.7760    2.0740 c3        1 MOL     -0.194477
     55 C18         4.6870   -0.4810    3.1860 c         1 MOL      0.578898
     56 O9          4.5250    0.4030    4.0130 o         1 MOL     -0.579019
     57 H25         2.9460    1.1370    2.1700 hn        1 MOL      0.147385
     58 H26         4.2380   -0.9920    1.1200 h1        1 MOL      0.090668
     59 H27         3.2280   -1.6910    2.3540 h1        1 MOL      0.090668
     60 N6          5.7980   -1.1800    3.2350 n         1 MOL     -0.400788
     61 C19         6.1150   -2.4400    2.5400 c3        1 MOL     -0.043933
     62 C20         7.2560   -2.1500    1.4810 c         1 MOL      0.416128
     63 O10         8.3150   -1.5570    1.8470 o         1 MOL     -0.421719
     64 C21         6.5280   -3.5400    3.5120 c3        1 MOL     -0.007983
     65 C22         7.7080   -3.1130    4.3300 c         1 MOL      0.643318
     66 O11         7.6370   -2.1070    5.1040 o         1 MOL     -0.641282
     67 O12         8.7510   -3.7860    4.2930 o         1 MOL     -0.641282
     68 H28         6.2400   -1.1200    4.1400 hn        1 MOL      0.255042
     69 H29         5.2950   -2.8950    1.9870 h1        1 MOL      0.030141
     70 H30         6.6610   -4.5190    3.0420 hc        1 MOL      0.001099
     71 H31         5.6990   -3.7130    4.2040 hc        1 MOL      0.001099
     72 N7          7.1050   -2.5990    0.2410 n         1 MOL     -0.312081
     73 C23         8.0730   -2.2550   -0.8190 c3        1 MOL     -0.186064
     74 C24         7.7630   -1.0580   -1.7390 c         1 MOL      0.582215
     75 O13         8.6920   -0.5790   -2.4500 o         1 MOL     -0.548790
     76 H32         6.2140   -3.0070   -0.0080 hn        1 MOL      0.241015
     77 H33         8.0830   -3.0790   -1.5380 h1        1 MOL      0.124325
     78 H34         9.0410   -2.0080   -0.3900 h1        1 MOL      0.124325
     79 N8          6.4740   -0.6820   -1.6980 n         1 MOL     -0.424387
     80 C25         5.9240    0.4330   -2.4780 c3        1 MOL     -0.044369
     81 C26         4.8760    1.0320   -1.5860 c         1 MOL      0.658370
     82 O14         4.1460    0.3450   -0.9000 o         1 MOL     -0.555139
     83 C27         5.4020    0.1480   -3.9070 c3        1 MOL      0.176733
     84 C28         6.4930   -0.5790   -4.7380 c3        1 MOL     -0.400150
     85 O15         5.1360    1.3820   -4.5700 oh        1 MOL     -0.584431
     86 H35         5.7710   -1.2430   -1.2230 hn        1 MOL      0.258526
     87 H36         6.7800    1.1110   -2.4860 h1        1 MOL      0.149589
     88 H37         4.4960   -0.4550   -3.9530 h1        1 MOL      0.053707
     89 H38         4.6750    1.1010   -5.3640 ho        1 MOL      0.403091
     90 H39         6.7670   -1.5380   -4.3150 hc        1 MOL      0.116690
     91 H40         6.2100   -0.7720   -5.7790 hc        1 MOL      0.116690
     92 H41         7.3300    0.0990   -4.9090 hc        1 MOL      0.116690
     93 N9          4.8140    2.3700   -1.5120 n         1 MOL     -0.618792
     94 C29         4.1270    3.1150   -0.4150 c3        1 MOL     -0.142286
     95 C30         2.8570    3.8660   -0.8170 c         1 MOL      0.352692
     96 O16         2.4630    4.8600   -0.2100 o         1 MOL     -0.518914
     97 C31         5.0680    3.9360    0.3710 c3        1 MOL      0.212778
     98 C32         5.5920    5.0730   -0.5010 c3        1 MOL      0.180318
     99 C33         6.2080    3.1440    0.9470 c3        1 MOL     -0.320301
    100 C34         6.2310    6.0710    0.3250 c3        1 MOL     -0.271023
    101 H42         5.5510    2.8300   -2.0210 hn        1 MOL      0.308317
    102 H43         3.8190    2.4040    0.3460 h1        1 MOL      0.181628
    103 H44         4.5000    4.3410    1.1970 hc        1 MOL      0.003838
    104 H45         4.9000    5.6050   -1.1480 hc        1 MOL     -0.002100
    105 H46         6.4210    4.7610   -1.1360 hc        1 MOL     -0.002100
    106 H47         6.9480    3.6890    1.5290 hc        1 MOL      0.090900
    107 H48         5.8110    2.3510    1.5760 hc        1 MOL      0.090900
    108 H49         6.7750    2.6230    0.1750 hc        1 MOL      0.090900
    109 H50         7.2160    5.7690    0.6630 hc        1 MOL      0.051848
    110 H51         6.2550    7.0110   -0.2260 hc        1 MOL      0.051848
    111 H52         5.6880    6.2950    1.2340 hc        1 MOL      0.051848
    112 N10         2.1510    3.3570   -1.8680 n         1 MOL     -0.020633
    113 C35         0.9770    4.0320   -2.4640 c3        1 MOL     -0.206441
    114 C36        -0.3790    3.8390   -1.7140 c         1 MOL      0.397414
    115 O17        -1.2610    4.6500   -2.1120 o         1 MOL     -0.548967
    116 C37         0.7420    3.8120   -3.9940 c3        1 MOL      0.189594
    117 C38         0.4870    2.4100   -4.4020 c3        1 MOL     -0.090789
    118 O18         1.9820    4.2150   -4.5050 oh        1 MOL     -0.627495
    119 H53         2.5300    2.5720   -2.3640 hn        1 MOL      0.234467
    120 H54         1.2090    5.1040   -2.3780 h1        1 MOL      0.161621
    121 H55        -0.0820    4.4430   -4.3210 h1        1 MOL      0.069552
    122 H56         1.7000    4.4600   -5.3870 ho        1 MOL      0.403091
    123 H57         1.2000    1.7490   -3.9090 hc        1 MOL      0.025711
    124 H58        -0.4860    2.1040   -4.0100 hc        1 MOL      0.025711
    125 H59         0.5580    2.3420   -5.4870 hc        1 MOL      0.025711
    126 N11        -0.6280    3.0000   -0.6960 n         1 MOL     -0.181348
    127 C39        -1.9780    2.7470   -0.1420 c3        1 MOL     -0.035889
    128 C40        -3.0070    2.1200   -1.1390 c         1 MOL      0.225119
    129 O19        -2.7770    1.9350   -2.3500 o         1 MOL     -0.431348
    130 C41        -2.5280    3.9900    0.5990 c3        1 MOL      0.427826
    131 C42        -1.4270    4.5940    1.4160 c3        1 MOL     -0.264700
    132 O20        -3.5560    3.7820    1.5080 oh        1 MOL     -0.643249
    133 H60         0.1130    2.4160   -0.3360 hn        1 MOL      0.165296
    134 H61        -1.7960    2.0340    0.6580 h1        1 MOL      0.168731
    135 H62        -2.8780    4.7020   -0.1350 h1        1 MOL     -0.042453
    136 H63        -3.7830    4.6220    1.9260 ho        1 MOL      0.406633
    137 H64        -0.6790    5.0400    0.7570 hc        1 MOL      0.044750
    138 H65        -1.8220    5.4420    1.9730 hc        1 MOL      0.044750
    139 H66        -1.0270    3.8580    2.1250 hc        1 MOL      0.044750
    140 N12        -4.2350    1.9080   -0.6930 n         1 MOL     -0.105420
    141 C43        -5.3670    1.5770   -1.6620 c3        1 MOL     -0.000082
    142 C44        -5.5700    0.0460   -1.8310 c         1 MOL      0.581644
    143 O21        -6.0750   -0.3730   -2.8620 o         1 MOL     -0.624166
    144 C45        -6.5740    2.3650   -1.1900 c3        1 MOL     -0.257985
    145 C46        -6.3520    3.8480   -1.1500 c3        1 MOL      0.320622
    146 C47        -7.6480    4.6560   -0.8300 c3        1 MOL     -0.221731
    147 C48        -7.1990    6.1680   -0.8460 c3        1 MOL      0.075241
    148 N13        -7.1950    6.7260   -2.2210 n4        1 MOL     -0.403185
    149 H67        -4.4890    2.3150    0.1990 hn        1 MOL      0.225677
    150 H68        -5.0670    1.8760   -2.6670 h1        1 MOL      0.079681
    151 H69        -6.8790    2.0580   -0.1830 hc        1 MOL      0.078917
    152 H70        -7.4750    2.2900   -1.7950 hc        1 MOL      0.078917
    153 H71        -6.0080    4.1500   -2.1370 hc        1 MOL     -0.066492
    154 H72        -5.5430    4.0630   -0.4540 hc        1 MOL     -0.066492
    155 H73        -7.9080    4.3740    0.1910 hc        1 MOL      0.093358
    156 H74        -8.4670    4.4390   -1.5120 hc        1 MOL      0.093358
    157 H75        -6.2150    6.2750   -0.3770 hx        1 MOL      0.065639
    158 H76        -7.8730    6.7280   -0.2010 hx        1 MOL      0.065639
    159 H77        -7.1790    7.7270   -2.0780 hn        1 MOL      0.307477
    160 H78        -6.4090    6.3260   -2.7070 hn        1 MOL      0.307477
    161 H79        -8.0110    6.4470   -2.7400 hn        1 MOL      0.307477
    162 N14        -4.9840   -0.7900   -0.9630 n         1 MOL     -0.292231
    163 C49        -5.0670   -2.2700   -1.0390 c3        1 MOL     -0.085223
    164 C50        -6.3750   -2.9210   -0.5350 c         1 MOL      0.370100
    165 O22        -6.7080   -2.7600    0.6270 o         1 MOL     -0.474550
    166 C51        -3.8600   -2.9050   -0.2360 c3        1 MOL      0.766840
    167 C52        -3.5510   -4.3400   -0.4770 c3        1 MOL     -0.343066
    168 C53        -3.5560   -4.7520   -1.9590 c         1 MOL      0.820587
    169 O23        -4.6760   -4.8760   -2.4760 o         1 MOL     -0.804418
    170 O24        -2.4700   -4.8520   -2.5720 o         1 MOL     -0.804418
    171 H80        -4.5020   -0.4240   -0.1620 hn        1 MOL      0.142696
    172 H81        -4.9320   -2.5550   -2.0820 h1        1 MOL      0.093029
    173 H82        -3.8940   -2.6830    0.8330 hc        1 MOL     -0.192209
    174 H83        -3.0790   -2.2580   -0.6280 hc        1 MOL     -0.192209
    175 H84        -4.3180   -4.9750   -0.0160 hc        1 MOL      0.049991
    176 H85        -2.5630   -4.5600   -0.0530 hc        1 MOL      0.049991
    177 N15        -7.1490   -3.5740   -1.4340 n         1 MOL     -0.286601
    178 C54        -8.3550   -4.3490   -1.0690 c3        1 MOL     -0.176836
    179 H86        -8.9550   -4.5280   -1.9610 h1        1 MOL      0.089189
    180 H87        -8.0560   -5.3030   -0.6360 h1        1 MOL      0.089189
    181 H88        -8.9430   -3.7870   -0.3440 h1        1 MOL      0.089189
    182 H89        -6.8040   -3.6770   -2.3740 hn        1 MOL      0.313902
    183 Ca1        -0.3200   -4.2240   -3.9220 Ca        1 MOL      1.698185
    184 O25         0.7500   -2.8060   -5.9420 oh        1 MOL     -0.833255
    185 H90         0.4550   -2.9840   -6.8320 ho        1 MOL      0.422313
    186 H91         1.5870   -2.3520   -6.0600 ho        1 MOL      0.422313
    187 O26        -2.0980   -2.4770   -4.9380 oh        1 MOL     -0.833255
    188 H92        -2.3810   -1.9410   -4.1980 ho        1 MOL      0.422313
    189 H93        -2.8430   -2.4430   -5.5520 ho        1 MOL      0.422313
    190 O27        -1.2070   -5.3480   -6.1460 oh        1 MOL     -0.833255
    191 H94        -1.8710   -4.9680   -6.7240 ho        1 MOL      0.422313
    192 H95        -1.4040   -6.2790   -6.1300 ho        1 MOL      0.422313
    193 O28         0.3840   -5.3380   -1.4590 oh        1 MOL     -0.833255
    194 H96         1.0670   -4.7740   -1.0930 ho        1 MOL      0.422313
    195 H97         0.7640   -6.2220   -1.4270 ho        1 MOL      0.422313
@<TRIPOS>BOND
     1    1    2 1   
     2    1    4 1   
     3    1    5 1   
     4    1    6 1   
     5    2    3 2   
     6    2    7 1   
     7    7    8 1   
     8    7   15 1   
     9    8    9 1   
    10    8   11 1   
    11    8   16 1   
    12    9   10 2   
    13    9   19 1   
    14   11   12 1   
    15   11   17 1   
    16   11   18 1   
    17   12   13 1   
    18   12   14 1   
    19   19   20 1   
    20   19   28 1   
    21   20   21 1   
    22   20   23 1   
    23   20   29 1   
    24   21   22 2   
    25   21   41 1   
    26   23   24 1   
    27   23   30 1   
    28   23   31 1   
    29   24   25 1   
    30   24   32 1   
    31   24   33 1   
    32   25   26 1   
    33   25   34 1   
    34   25   35 1   
    35   26   27 1   
    36   26   36 1   
    37   26   37 1   
    38   27   38 1   
    39   27   39 1   
    40   27   40 1   
    41   41   42 1   
    42   41   49 1   
    43   42   43 1   
    44   42   45 1   
    45   42   50 1   
    46   43   44 2   
    47   43   53 1   
    48   45   46 1   
    49   45   51 1   
    50   45   52 1   
    51   46   47 1   
    52   46   48 1   
    53   53   54 1   
    54   53   57 1   
    55   54   55 1   
    56   54   58 1   
    57   54   59 1   
    58   55   56 2   
    59   55   60 1   
    60   60   61 1   
    61   60   68 1   
    62   61   62 1   
    63   61   64 1   
    64   61   69 1   
    65   62   63 2   
    66   62   72 1   
    67   64   65 1   
    68   64   70 1   
    69   64   71 1   
    70   65   66 1   
    71   65   67 1   
    72   72   73 1   
    73   72   76 1   
    74   73   74 1   
    75   73   77 1   
    76   73   78 1   
    77   74   75 2   
    78   74   79 1   
    79   79   80 1   
    80   79   86 1   
    81   80   81 1   
    82   80   83 1   
    83   80   87 1   
    84   81   82 2   
    85   81   93 1   
    86   83   84 1   
    87   83   85 1   
    88   83   88 1   
    89   84   90 1   
    90   84   91 1   
    91   84   92 1   
    92   85   89 1   
    93   93   94 1   
    94   93  101 1   
    95   94   95 1   
    96   94   97 1   
    97   94  102 1   
    98   95   96 2   
    99   95  112 1   
   100   97   98 1   
   101   97   99 1   
   102   97  103 1   
   103   98  100 1   
   104   98  104 1   
   105   98  105 1   
   106   99  106 1   
   107   99  107 1   
   108   99  108 1   
   109  100  109 1   
   110  100  110 1   
   111  100  111 1   
   112  112  113 1   
   113  112  119 1   
   114  113  114 1   
   115  113  116 1   
   116  113  120 1   
   117  114  115 2   
   118  114  126 1   
   119  116  117 1   
   120  116  118 1   
   121  116  121 1   
   122  117  123 1   
   123  117  124 1   
   124  117  125 1   
   125  118  122 1   
   126  126  127 1   
   127  126  133 1   
   128  127  128 1   
   129  127  130 1   
   130  127  134 1   
   131  128  129 2   
   132  128  140 1   
   133  130  131 1   
   134  130  132 1   
   135  130  135 1   
   136  131  137 1   
   137  131  138 1   
   138  131  139 1   
   139  132  136 1   
   140  140  141 1   
   141  140  149 1   
   142  141  142 1   
   143  141  144 1   
   144  141  150 1   
   145  142  143 2   
   146  142  162 1   
   147  144  145 1   
   148  144  151 1   
   149  144  152 1   
   150  145  146 1   
   151  145  153 1   
   152  145  154 1   
   153  146  147 1   
   154  146  155 1   
   155  146  156 1   
   156  147  148 1   
   157  147  157 1   
   158  147  158 1   
   159  148  159 1   
   160  148  160 1   
   161  148  161 1   
   162  162  163 1   
   163  162  171 1   
   164  163  164 1   
   165  163  166 1   
   166  163  172 1   
   167  164  165 2   
   168  164  177 1   
   169  166  167 1   
   170  166  173 1   
   171  166  174 1   
   172  167  168 1   
   173  167  175 1   
   174  167  176 1   
   175  168  169 1   
   176  168  170 1   
   177  177  178 1   
   178  177  182 1   
   179  178  179 1   
   180  178  180 1   
   181  178  181 1   
   182  184  185 1   
   183  184  186 1   
   184  187  188 1   
   185  187  189 1   
   186  190  191 1   
   187  190  192 1   
   188  193  194 1   
   189  193  195 1   
@<TRIPOS>SUBSTRUCTURE
     1 MOL         1 TEMP              0 ****  ****    0 ROOT
