@<TRIPOS>MOLECULE
MOL
  189   185     1     0     0
SMALL
resp


@<TRIPOS>ATOM
      1 C1         -8.3160    0.5360   -2.9020 c3        1 MOL     -0.502971
      2 C2         -7.5200    0.3520   -1.6020 c         1 MOL      0.825229
      3 O1         -6.3010    0.2830   -1.6960 o         1 MOL     -0.714847
      4 H1         -7.8840   -0.0880   -3.6830 hc        1 MOL      0.121666
      5 H2         -9.3540    0.2460   -2.7380 hc        1 MOL      0.121666
      6 H3         -8.2750    1.5810   -3.2090 hc        1 MOL      0.121666
      7 N1         -8.1680    0.3300   -0.4670 n         1 MOL     -0.454558
      8 C3         -7.6400    0.2260    0.8730 c3        1 MOL     -0.272463
      9 C4         -7.0680   -1.2010    1.1860 c         1 MOL      0.700764
     10 O2         -6.8990   -1.5050    2.3640 o         1 MOL     -0.499487
     11 C5         -8.6430    0.8460    1.9220 c3        1 MOL     -0.005217
     12 C6        -10.0600    0.2960    1.9060 c         1 MOL      0.705310
     13 O3        -10.3500   -0.5650    1.1110 o         1 MOL     -0.679371
     14 O4        -10.7620    0.7790    2.8180 o         1 MOL     -0.679371
     15 H4         -9.1720    0.4310   -0.5480 hn        1 MOL      0.259147
     16 H5         -6.8110    0.9410    0.8070 h1        1 MOL      0.112423
     17 H6         -8.7390    1.9270    1.7460 hc        1 MOL      0.037296
     18 H7         -8.2480    0.8460    2.9340 hc        1 MOL      0.037296
     19 N2         -6.8480   -2.0970    0.2360 n         1 MOL     -0.456855
     20 C7         -6.1810   -3.4090    0.3970 c3        1 MOL     -0.019559
     21 C8         -4.9110   -3.4190    1.2930 c         1 MOL      0.405752
     22 O5         -4.7490   -4.2230    2.2000 o         1 MOL     -0.534146
     23 C9         -5.9040   -4.0250   -0.9730 c3        1 MOL     -0.084688
     24 C10        -7.2470   -4.2480   -1.6610 c3        1 MOL      0.105721
     25 C11        -7.1320   -4.7780   -3.0690 c3        1 MOL     -0.071965
     26 C12        -8.5030   -4.9860   -3.6680 c3        1 MOL      0.229311
     27 N3         -8.5470   -5.5760   -5.0380 n4        1 MOL     -0.358543
     28 H8         -7.0570   -1.8610   -0.7200 hn        1 MOL      0.217688
     29 H9         -6.8370   -4.0300    1.0040 h1        1 MOL      0.105848
     30 H10        -5.4010   -4.9890   -0.9510 hc        1 MOL      0.071765
     31 H11        -5.2640   -3.3890   -1.5710 hc        1 MOL      0.071765
     32 H12        -7.8320   -3.3430   -1.7930 hc        1 MOL      0.004654
     33 H13        -7.8240   -4.9340   -1.0490 hc        1 MOL      0.004654
     34 H14        -6.5570   -5.7050   -3.0860 hc        1 MOL      0.011405
     35 H15        -6.7200   -3.9960   -3.6990 hc        1 MOL      0.011405
     36 H16        -9.0000   -4.0080   -3.6610 hx        1 MOL      0.020479
     37 H17        -9.0930   -5.5870   -2.9800 hx        1 MOL      0.020479
     38 H18        -8.0350   -4.8890   -5.5720 hn        1 MOL      0.290649
     39 H19        -8.1300   -6.4830   -5.1500 hn        1 MOL      0.290649
     40 H20        -9.4520   -5.6380   -5.4800 hn        1 MOL      0.290649
     41 N4         -4.0150   -2.4890    1.1400 n         1 MOL     -0.156227
     42 C13        -3.7420   -1.5810    0.0200 c3        1 MOL     -0.044283
     43 C14        -3.5060   -0.1570    0.4800 c         1 MOL      0.131590
     44 O6         -2.9690    0.0000    1.6000 o         1 MOL     -0.498325
     45 C15        -2.6990   -2.0850   -0.9530 c3        1 MOL     -0.054921
     46 C16        -1.3450   -2.4700   -0.2600 c         1 MOL      0.538512
     47 O7         -1.0950   -2.1850    0.9270 o         1 MOL     -0.549714
     48 O8         -0.7290   -3.3190   -0.9500 o         1 MOL     -0.549714
     49 H21        -3.3290   -2.3160    1.8630 hn        1 MOL      0.245421
     50 H22        -4.5970   -1.4300   -0.6400 h1        1 MOL      0.092853
     51 H23        -2.3790   -1.2860   -1.6170 hc        1 MOL      0.001715
     52 H24        -3.1420   -2.9170   -1.4920 hc        1 MOL      0.001715
     53 N5         -3.8550    0.9290   -0.2230 n         1 MOL      0.108941
     54 C17        -3.9200    2.3250    0.2800 c3        1 MOL      0.020071
     55 C18        -2.5380    3.0090    0.6710 c         1 MOL      0.722151
     56 O9         -1.5250    2.3350    0.6050 o         1 MOL     -0.728602
     57 H25        -4.3130    0.6970   -1.0970 hn        1 MOL      0.189260
     58 H26        -4.6300    2.3590    1.1000 h1        1 MOL      0.037210
     59 H27        -4.3750    2.9130   -0.5170 h1        1 MOL      0.037210
     60 N6         -2.5880    4.2570    1.1100 n         1 MOL     -0.707453
     61 C19        -1.3590    5.0060    1.4240 c3        1 MOL      0.572082
     62 C20        -1.3560    6.5540    1.2130 c         1 MOL      0.233564
     63 O10        -2.4350    7.2020    1.2880 o         1 MOL     -0.508999
     64 C21        -0.7030    4.6300    2.7590 c3        1 MOL     -0.136567
     65 C22        -1.1410    3.3340    3.4190 c         1 MOL      0.663359
     66 O11        -2.2030    3.2320    4.0150 o         1 MOL     -0.657407
     67 O12        -0.4880    2.2910    3.2780 o         1 MOL     -0.657407
     68 H28        -3.4740    4.7420    1.1470 hn        1 MOL      0.329592
     69 H29        -0.5860    4.6380    0.7490 h1        1 MOL      0.089257
     70 H30        -0.9430    5.4210    3.4720 hc        1 MOL     -0.011077
     71 H31         0.3760    4.5350    2.6020 hc        1 MOL     -0.011077
     72 N7         -0.2670    7.2100    0.9760 n         1 MOL     -0.305011
     73 C23         1.1300    6.7950    0.7500 c3        1 MOL     -0.270548
     74 C24         1.3890    6.0020   -0.5730 c         1 MOL      0.621232
     75 O13         0.5840    5.8920   -1.4710 o         1 MOL     -0.477406
     76 H32        -0.4140    8.2000    0.8620 hn        1 MOL      0.317381
     77 H33         1.5940    6.2660    1.5850 h1        1 MOL      0.121189
     78 H34         1.6480    7.7560    0.6960 h1        1 MOL      0.121189
     79 N8          2.5180    5.3030   -0.5440 n         1 MOL     -0.518943
     80 C25         3.2000    4.4920   -1.6550 c3        1 MOL      0.000349
     81 C26         2.5250    3.2650   -2.2750 c         1 MOL      0.276211
     82 O14         3.1950    2.4710   -2.9360 o         1 MOL     -0.527043
     83 C27         4.7480    4.1410   -1.3380 c3        1 MOL      0.409698
     84 C28         4.8830    3.0980   -0.2720 c3        1 MOL     -0.064945
     85 O15         5.4030    5.3160   -0.9470 oh        1 MOL     -0.667752
     86 H35         3.0520    5.4770    0.2940 hn        1 MOL      0.276851
     87 H36         3.3070    5.1560   -2.5090 h1        1 MOL      0.126820
     88 H37         5.2630    3.7800   -2.2310 h1        1 MOL      0.004623
     89 H38         5.7890    5.2090   -0.0810 ho        1 MOL      0.404482
     90 H39         4.2410    2.2750   -0.5870 hc        1 MOL     -0.005257
     91 H40         5.9210    2.8230   -0.0720 hc        1 MOL     -0.005257
     92 H41         4.4820    3.4950    0.6630 hc        1 MOL     -0.005257
     93 N9          1.1880    3.1060   -1.9650 n         1 MOL      0.118638
     94 C29         0.3180    1.9660   -2.5540 c3        1 MOL      0.004139
     95 C30         0.6870    0.6080   -1.8690 c         1 MOL      0.165639
     96 O16         0.2020    0.2490   -0.7960 o         1 MOL     -0.263271
     97 C31        -1.1890    2.1750   -2.6030 c3        1 MOL      0.266035
     98 C32        -1.4990    3.6980   -2.7920 c3        1 MOL     -0.484583
     99 C33        -1.7330    1.3170   -3.7150 c3        1 MOL     -0.544733
    100 C34        -1.0310    4.3300   -4.0860 c3        1 MOL      0.190624
    101 H42         0.8260    3.9140   -1.4760 hn        1 MOL      0.050358
    102 H43         0.6560    1.8740   -3.5820 h1        1 MOL      0.024182
    103 H44        -1.6930    1.8420   -1.7020 hc        1 MOL     -0.184180
    104 H45        -1.1090    4.2990   -1.9750 hc        1 MOL      0.127461
    105 H46        -2.5810    3.8300   -2.7170 hc        1 MOL      0.127461
    106 H47        -2.7370    1.6450   -3.9860 hc        1 MOL      0.158388
    107 H48        -1.1160    1.3290   -4.6100 hc        1 MOL      0.158388
    108 H49        -1.7460    0.2630   -3.4330 hc        1 MOL      0.158388
    109 H50        -1.2010    5.4070   -4.1940 hc        1 MOL     -0.031144
    110 H51         0.0560    4.2900   -4.0650 hc        1 MOL     -0.031144
    111 H52        -1.4340    3.9020   -4.9910 hc        1 MOL     -0.031144
    112 N10         1.6080   -0.1160   -2.4560 n         1 MOL     -0.096979
    113 C35         2.0250   -1.5060   -2.1390 c3        1 MOL     -0.098769
    114 C36         3.5300   -1.7450   -1.8380 c         1 MOL      0.329552
    115 O17         3.9450   -2.8570   -1.3020 o         1 MOL     -0.552644
    116 C37         1.5870   -2.3880   -3.2770 c3        1 MOL      0.395876
    117 C38         2.0050   -1.9300   -4.6450 c3        1 MOL     -0.232295
    118 O18         0.2290   -2.4540   -3.3110 oh        1 MOL     -0.570107
    119 H53         2.0390    0.2890   -3.2710 hn        1 MOL      0.215622
    120 H54         1.4460   -1.8370   -1.2800 h1        1 MOL      0.157402
    121 H55         2.0380   -3.3620   -3.0660 h1        1 MOL     -0.005117
    122 H56        -0.0140   -2.7400   -2.4250 ho        1 MOL      0.266170
    123 H57         3.0470   -1.6030   -4.6700 hc        1 MOL      0.042764
    124 H58         1.9020   -2.7770   -5.3250 hc        1 MOL      0.042764
    125 H59         1.3730   -1.1200   -5.0250 hc        1 MOL      0.042764
    126 N11         4.3590   -0.6650   -2.0990 n         1 MOL     -0.050038
    127 C39         5.7920   -0.7140   -1.9570 c3        1 MOL     -0.099054
    128 C40         6.2380   -1.0250   -0.4710 c         1 MOL      0.333929
    129 O19         6.1240   -0.2060    0.4640 o         1 MOL     -0.472668
    130 C41         6.4220    0.5800   -2.4320 c3        1 MOL      0.333489
    131 C42         7.9290    0.4850   -2.4780 c3        1 MOL     -0.568714
    132 O20         6.0120    0.9570   -3.7200 oh        1 MOL     -0.626482
    133 H60         4.0250    0.2320   -2.4040 hn        1 MOL      0.140225
    134 H61         6.1920   -1.5040   -2.5860 h1        1 MOL      0.080547
    135 H62         6.1490    1.4290   -1.8030 h1        1 MOL      0.049967
    136 H63         6.4510    1.7690   -3.9810 ho        1 MOL      0.414913
    137 H64         8.2430    1.5080   -2.7000 hc        1 MOL      0.144913
    138 H65         8.2960    0.1720   -1.5040 hc        1 MOL      0.144913
    139 H66         8.2890   -0.3410   -3.0860 hc        1 MOL      0.144913
    140 N12         6.6900   -2.2240   -0.2610 n         1 MOL     -0.008388
    141 C43         6.9920   -2.9270    0.9270 c3        1 MOL      0.165105
    142 C44         5.9100   -2.7430    2.0410 c         1 MOL      0.493563
    143 O21         6.2330   -2.0840    3.0450 o         1 MOL     -0.516001
    144 C45         8.4990   -2.7610    1.3920 c3        1 MOL     -0.345172
    145 C46         9.4490   -2.9350    0.2130 c3        1 MOL      0.039742
    146 C47        10.9040   -3.0230    0.7070 c3        1 MOL      0.116519
    147 C48        11.8400   -3.2140   -0.4920 c3        1 MOL      0.021016
    148 N13        13.1790   -2.6920   -0.2060 n4        1 MOL     -0.215194
    149 H67         6.8630   -2.8100   -1.0640 hn        1 MOL      0.120909
    150 H68         6.8660   -3.9770    0.6750 h1        1 MOL      0.014921
    151 H69         8.7230   -3.5270    2.1390 hc        1 MOL      0.109499
    152 H70         8.5540   -1.7540    1.7730 hc        1 MOL      0.109499
    153 H71         9.2420   -2.1040   -0.4570 hc        1 MOL     -0.012975
    154 H72         9.2190   -3.8460   -0.3380 hc        1 MOL     -0.012975
    155 H73        11.0820   -3.8080    1.4440 hc        1 MOL      0.007304
    156 H74        11.1180   -2.0680    1.1850 hc        1 MOL      0.007304
    157 H75        11.4230   -2.6670   -1.3360 hx        1 MOL      0.056666
    158 H76        11.9230   -4.2780   -0.7270 hx        1 MOL      0.056666
    159 H77        13.7060   -3.3750    0.3060 hn        1 MOL      0.221959
    160 H78        13.5650   -2.4700   -1.1150 hn        1 MOL      0.221959
    161 H79        13.2700   -1.8660    0.3650 hn        1 MOL      0.221959
    162 N14         4.7040   -3.1960    1.8960 n         1 MOL     -0.568603
    163 C49         3.5120   -2.6050    2.5410 c3        1 MOL      0.342510
    164 C50         2.3290   -2.4580    1.5720 c         1 MOL      0.556047
    165 O22         1.8970   -1.2820    1.3730 o         1 MOL     -0.748266
    166 C51         3.1690   -3.1730    3.9260 c3        1 MOL     -0.620266
    167 C52         1.7870   -2.7790    4.4730 c3        1 MOL      0.316763
    168 C53         1.6550   -1.2890    4.8110 c         1 MOL      0.691970
    169 O23         1.5850   -0.3620    3.9310 o         1 MOL     -0.660330
    170 O24         1.8040   -1.0190    6.0260 o         1 MOL     -0.660330
    171 H80         4.4990   -3.6940    1.0390 hn        1 MOL      0.264266
    172 H81         3.7600   -1.5650    2.7470 h1        1 MOL      0.065260
    173 H82         3.8900   -2.8140    4.6520 hc        1 MOL      0.172906
    174 H83         2.9980   -4.2520    3.8640 hc        1 MOL      0.172906
    175 H84         1.6390   -3.3930    5.3650 hc        1 MOL     -0.074838
    176 H85         1.0030   -3.0330    3.7610 hc        1 MOL     -0.074838
    177 N15         1.7180   -3.4600    0.8640 n         1 MOL     -0.127508
    178 C54         1.9330   -4.8790    1.0970 c3        1 MOL     -0.203357
    179 H86         1.8110   -5.0950    2.1580 h1        1 MOL      0.078293
    180 H87         1.2080   -5.4560    0.5230 h1        1 MOL      0.078293
    181 H88         2.9420   -5.1500    0.7860 h1        1 MOL      0.078293
    182 H89         0.9660   -3.1360    0.2900 hn        1 MOL      0.137311
    183 Ca1        -0.1090    0.2220    1.8990 Ca        1 MOL      1.714895
    184 O25        -1.1190   -1.0320    4.1740 oh        1 MOL     -1.026548
    185 H90        -1.9870   -1.4180    4.0460 ho        1 MOL      0.480962
    186 H91        -1.1850   -0.5540    5.0040 ho        1 MOL      0.480962
    187 O26         1.9350    2.0310    1.0020 oh        1 MOL     -1.026548
    188 H92         2.2380    2.7250    1.5830 ho        1 MOL      0.480962
    189 H93         2.6840    1.8320    0.4500 ho        1 MOL      0.480962
@<TRIPOS>BOND
     1    1    2 1   
     2    1    4 1   
     3    1    5 1   
     4    1    6 1   
     5    2    3 2   
     6    2    7 1   
     7    7    8 1   
     8    7   15 1   
     9    8    9 1   
    10    8   11 1   
    11    8   16 1   
    12    9   10 2   
    13    9   19 1   
    14   11   12 1   
    15   11   17 1   
    16   11   18 1   
    17   12   13 1   
    18   12   14 1   
    19   19   20 1   
    20   19   28 1   
    21   20   21 1   
    22   20   23 1   
    23   20   29 1   
    24   21   22 2   
    25   21   41 1   
    26   23   24 1   
    27   23   30 1   
    28   23   31 1   
    29   24   25 1   
    30   24   32 1   
    31   24   33 1   
    32   25   26 1   
    33   25   34 1   
    34   25   35 1   
    35   26   27 1   
    36   26   36 1   
    37   26   37 1   
    38   27   38 1   
    39   27   39 1   
    40   27   40 1   
    41   41   42 1   
    42   41   49 1   
    43   42   43 1   
    44   42   45 1   
    45   42   50 1   
    46   43   44 2   
    47   43   53 1   
    48   45   46 1   
    49   45   51 1   
    50   45   52 1   
    51   46   47 1   
    52   46   48 1   
    53   53   54 1   
    54   53   57 1   
    55   54   55 1   
    56   54   58 1   
    57   54   59 1   
    58   55   56 2   
    59   55   60 1   
    60   60   61 1   
    61   60   68 1   
    62   61   62 1   
    63   61   64 1   
    64   61   69 1   
    65   62   63 2   
    66   62   72 1   
    67   64   65 1   
    68   64   70 1   
    69   64   71 1   
    70   65   66 1   
    71   65   67 1   
    72   72   73 1   
    73   72   76 1   
    74   73   74 1   
    75   73   77 1   
    76   73   78 1   
    77   74   75 2   
    78   74   79 1   
    79   79   80 1   
    80   79   86 1   
    81   80   81 1   
    82   80   83 1   
    83   80   87 1   
    84   81   82 2   
    85   81   93 1   
    86   83   84 1   
    87   83   85 1   
    88   83   88 1   
    89   84   90 1   
    90   84   91 1   
    91   84   92 1   
    92   85   89 1   
    93   93   94 1   
    94   93  101 1   
    95   94   95 1   
    96   94   97 1   
    97   94  102 1   
    98   95   96 2   
    99   95  112 1   
   100   97   98 1   
   101   97   99 1   
   102   97  103 1   
   103   98  100 1   
   104   98  104 1   
   105   98  105 1   
   106   99  106 1   
   107   99  107 1   
   108   99  108 1   
   109  100  109 1   
   110  100  110 1   
   111  100  111 1   
   112  112  113 1   
   113  112  119 1   
   114  113  114 1   
   115  113  116 1   
   116  113  120 1   
   117  114  115 2   
   118  114  126 1   
   119  116  117 1   
   120  116  118 1   
   121  116  121 1   
   122  117  123 1   
   123  117  124 1   
   124  117  125 1   
   125  118  122 1   
   126  126  127 1   
   127  126  133 1   
   128  127  128 1   
   129  127  130 1   
   130  127  134 1   
   131  128  129 2   
   132  128  140 1   
   133  130  131 1   
   134  130  132 1   
   135  130  135 1   
   136  131  137 1   
   137  131  138 1   
   138  131  139 1   
   139  132  136 1   
   140  140  141 1   
   141  140  149 1   
   142  141  142 1   
   143  141  144 1   
   144  141  150 1   
   145  142  143 2   
   146  142  162 1   
   147  144  145 1   
   148  144  151 1   
   149  144  152 1   
   150  145  146 1   
   151  145  153 1   
   152  145  154 1   
   153  146  147 1   
   154  146  155 1   
   155  146  156 1   
   156  147  148 1   
   157  147  157 1   
   158  147  158 1   
   159  148  159 1   
   160  148  160 1   
   161  148  161 1   
   162  162  163 1   
   163  162  171 1   
   164  163  164 1   
   165  163  166 1   
   166  163  172 1   
   167  164  165 2   
   168  164  177 1   
   169  166  167 1   
   170  166  173 1   
   171  166  174 1   
   172  167  168 1   
   173  167  175 1   
   174  167  176 1   
   175  168  169 1   
   176  168  170 1   
   177  177  178 1   
   178  177  182 1   
   179  178  179 1   
   180  178  180 1   
   181  178  181 1   
   182  184  185 1   
   183  184  186 1   
   184  187  188 1   
   185  187  189 1   
@<TRIPOS>SUBSTRUCTURE
     1 MOL         1 TEMP              0 ****  ****    0 ROOT
