@<TRIPOS>MOLECULE
MOL
  186   183     1     0     0
SMALL
resp


@<TRIPOS>ATOM
      1 C1         11.0060    3.7340   -4.6290 c3        1 MOL     -0.494807
      2 C2         10.9250    3.3460   -3.1080 c         1 MOL      0.856766
      3 O1         11.2780    2.2260   -2.7270 o         1 MOL     -0.596621
      4 H1         10.4230    4.6370   -4.8050 hc        1 MOL      0.127901
      5 H2         12.0460    3.9150   -4.9030 hc        1 MOL      0.127901
      6 H3         10.6070    2.9210   -5.2350 hc        1 MOL      0.127901
      7 N1         10.4550    4.2390   -2.2180 n         1 MOL     -0.545386
      8 C3         10.4840    3.9690   -0.7490 c3        1 MOL     -0.542182
      9 C4          9.3950    2.9220   -0.4190 c         1 MOL      0.298043
     10 O2          8.3520    2.8670   -1.0720 o         1 MOL     -0.606614
     11 C5         10.4910    5.2320    0.1840 c3        1 MOL      0.408706
     12 C6          9.3540    6.2980   -0.0660 c         1 MOL      0.573863
     13 O3          8.2490    6.0070   -0.5780 o         1 MOL     -0.685758
     14 O4          9.5610    7.4790    0.3190 o         1 MOL     -0.685758
     15 H4         10.3300    5.1590   -2.6200 hn        1 MOL      0.307304
     16 H5         11.3950    3.4090   -0.5110 h1        1 MOL      0.214963
     17 H6         11.4500    5.7450    0.2020 hc        1 MOL     -0.026436
     18 H7         10.4450    5.0200    1.2510 hc        1 MOL     -0.026436
     19 N2          9.7130    2.0560    0.5250 n         1 MOL     -0.049314
     20 C7          9.4920    0.6160    0.3650 c3        1 MOL      0.175193
     21 C8          8.0180    0.1510    0.5540 c         1 MOL      0.135408
     22 O5          7.8680   -1.0430    0.6170 o         1 MOL     -0.441320
     23 C9         10.5240   -0.2030    1.1800 c3        1 MOL     -0.594481
     24 C10        10.2380   -0.3230    2.6790 c3        1 MOL      0.006487
     25 C11        11.4450   -0.9810    3.4430 c3        1 MOL     -0.043329
     26 C12        11.1010   -0.8450    4.9460 c3        1 MOL      0.069471
     27 N3         12.1020   -1.4520    5.8090 n4        1 MOL     -0.242736
     28 H8         10.6560    2.1460    0.8760 hn        1 MOL      0.170402
     29 H9          9.7720    0.3980   -0.6590 h1        1 MOL      0.172416
     30 H10        11.5160    0.2170    1.0340 hc        1 MOL      0.200824
     31 H11        10.5650   -1.2450    0.8310 hc        1 MOL      0.200824
     32 H12         9.3770   -0.9830    2.7970 hc        1 MOL      0.073790
     33 H13         9.9530    0.6390    3.1140 hc        1 MOL      0.073790
     34 H14        12.3720   -0.4410    3.2460 hc        1 MOL      0.045821
     35 H15        11.5570   -2.0450    3.2630 hc        1 MOL      0.045821
     36 H16        10.1620   -1.3670    5.1390 hx        1 MOL      0.056363
     37 H17        11.0210    0.1690    5.3130 hx        1 MOL      0.056363
     38 H18        11.8960   -1.2990    6.7820 hn        1 MOL      0.241836
     39 H19        12.1370   -2.4440    5.6440 hn        1 MOL      0.241836
     40 H20        12.9840   -1.0230    5.5620 hn        1 MOL      0.241836
     41 N4          7.0100    1.0800    0.5460 n         1 MOL      0.337436
     42 C13         5.5510    0.8950    0.8000 c3        1 MOL     -0.271614
     43 C14         4.7660    1.2980   -0.4590 c         1 MOL      0.560802
     44 O6          5.1100    2.3120   -1.0800 o         1 MOL     -0.678210
     45 C15         5.0800    1.7940    1.9400 c3        1 MOL     -0.073043
     46 C16         5.7510    3.1650    2.0260 c         1 MOL      0.550875
     47 O7          5.6030    3.7000    3.1340 o         1 MOL     -0.634979
     48 O8          6.3610    3.7450    1.1120 o         1 MOL     -0.634979
     49 H21         7.3180    2.0360    0.4010 hn        1 MOL     -0.146340
     50 H22         5.2650   -0.1280    1.0510 h1        1 MOL      0.094942
     51 H23         5.2790    1.2540    2.8650 hc        1 MOL      0.064051
     52 H24         4.0000    1.9640    1.8660 hc        1 MOL      0.064051
     53 N5          3.7870    0.5500   -0.9520 n         1 MOL     -0.412552
     54 C17         3.2770   -0.7110   -0.4090 c3        1 MOL      0.091922
     55 C18         4.0160   -1.9560   -0.7810 c         1 MOL      0.606821
     56 O9          4.4260   -2.0570   -1.9510 o         1 MOL     -0.542275
     57 H25         3.5800    0.8130   -1.9010 hn        1 MOL      0.315870
     58 H26         2.2200   -0.8970   -0.6230 h1        1 MOL      0.027882
     59 H27         3.3090   -0.6740    0.6840 h1        1 MOL      0.027882
     60 N6          4.0790   -2.9870    0.0830 n         1 MOL     -0.522899
     61 C19         4.8520   -4.2150   -0.0980 c3        1 MOL      0.124463
     62 C20         4.0190   -5.3640    0.0700 c         1 MOL      0.550647
     63 O10         4.0750   -6.2800   -0.7310 o         1 MOL     -0.492548
     64 C21         6.0930   -4.2380    0.8370 c3        1 MOL     -0.203221
     65 C22         6.8850   -5.5420    0.7830 c         1 MOL      0.738594
     66 O11         6.9830   -6.3900    1.7050 o         1 MOL     -0.645079
     67 O12         7.5920   -5.7470   -0.2410 o         1 MOL     -0.645079
     68 H28         3.6400   -2.9170    0.9820 hn        1 MOL      0.267603
     69 H29         5.1220   -4.2200   -1.1440 h1        1 MOL      0.088332
     70 H30         5.7520   -4.1660    1.8790 hc        1 MOL      0.017302
     71 H31         6.7440   -3.4010    0.5920 hc        1 MOL      0.017302
     72 N7          3.1570   -5.3420    1.0710 n         1 MOL     -0.359302
     73 C23         2.1740   -6.4130    1.3060 c3        1 MOL     -0.318654
     74 C24         0.9260   -6.2220    0.4720 c         1 MOL      0.474556
     75 O13         0.0410   -7.0740    0.4420 o         1 MOL     -0.562766
     76 H32         3.0970   -4.5680    1.7220 hn        1 MOL      0.292574
     77 H33         1.9060   -6.3770    2.3610 h1        1 MOL      0.166891
     78 H34         2.5050   -7.4280    1.0780 h1        1 MOL      0.166891
     79 N8          0.8470   -5.1370   -0.2370 n         1 MOL      0.009678
     80 C25        -0.3020   -4.6760   -1.0060 c3        1 MOL     -0.196397
     81 C26        -0.5850   -3.2070   -0.6340 c         1 MOL      0.323387
     82 O14         0.3700   -2.4520   -0.3450 o         1 MOL     -0.498569
     83 C27        -0.0610   -4.6150   -2.5670 c3        1 MOL      0.496028
     84 C28         1.1230   -3.8200   -2.9960 c3        1 MOL     -0.235358
     85 O15         0.1340   -5.9780   -3.0170 oh        1 MOL     -0.642487
     86 H35         1.6410   -4.5150   -0.2610 hn        1 MOL      0.019363
     87 H36        -1.1690   -5.3080   -0.8140 h1        1 MOL      0.079619
     88 H37        -0.9710   -4.2700   -3.0600 h1        1 MOL     -0.063016
     89 H38        -0.6430   -6.4970   -3.2110 ho        1 MOL      0.393358
     90 H39         0.8640   -2.8760   -3.4860 hc        1 MOL      0.076022
     91 H40         1.8130   -3.6800   -2.1600 hc        1 MOL      0.076022
     92 H41         1.6750   -4.4780   -3.6480 hc        1 MOL      0.076022
     93 N9         -1.8650   -2.8500   -0.6850 n         1 MOL     -0.185995
     94 C29        -2.4400   -1.5060   -0.5270 c3        1 MOL     -0.144133
     95 C30        -3.7810   -1.5950    0.3750 c         1 MOL      0.613666
     96 O16        -4.0530   -0.7570    1.2080 o         1 MOL     -0.515562
     97 C31        -2.8180   -0.9330   -1.9100 c3        1 MOL      0.084904
     98 C32        -1.8480   -1.1720   -3.1260 c3        1 MOL      0.027495
     99 C33        -2.8660    0.6490   -1.6940 c3        1 MOL     -0.203116
    100 C34        -2.2780   -0.5110   -4.4740 c3        1 MOL     -0.312872
    101 H42        -2.4790   -3.6140   -0.9240 hn        1 MOL      0.207420
    102 H43        -1.6810   -0.9330    0.0110 h1        1 MOL      0.124256
    103 H44        -3.7800   -1.3640   -2.1860 hc        1 MOL      0.000686
    104 H45        -1.8320   -2.2590   -3.1910 hc        1 MOL      0.026438
    105 H46        -0.8270   -0.8850   -2.8420 hc        1 MOL      0.026438
    106 H47        -3.5870    0.8960   -0.9070 hc        1 MOL      0.062764
    107 H48        -1.8660    1.0410   -1.5210 hc        1 MOL      0.062764
    108 H49        -3.3310    1.1400   -2.5530 hc        1 MOL      0.062764
    109 H50        -2.1930    0.5720   -4.3610 hc        1 MOL      0.084148
    110 H51        -1.5780   -0.8240   -5.2520 hc        1 MOL      0.084148
    111 H52        -3.2290   -0.9310   -4.8130 hc        1 MOL      0.084148
    112 N10        -4.4300   -2.7210    0.2440 n         1 MOL     -0.499577
    113 C35        -5.8080   -2.9250    0.8880 c3        1 MOL     -0.026127
    114 C36        -6.9150   -2.9320   -0.2330 c         1 MOL      0.742367
    115 O17        -6.6380   -3.3070   -1.3740 o         1 MOL     -0.557921
    116 C37        -5.8230   -4.1970    1.6560 c3        1 MOL      0.343495
    117 C38        -4.6330   -4.1250    2.6860 c3        1 MOL     -0.391281
    118 O18        -7.0110   -4.2200    2.2970 oh        1 MOL     -0.663581
    119 H53        -4.1490   -3.3480   -0.4930 hn        1 MOL      0.267364
    120 H54        -5.9940   -2.0810    1.5480 h1        1 MOL      0.120888
    121 H55        -5.7780   -5.0720    1.0110 h1        1 MOL      0.003070
    122 H56        -7.0130   -5.0260    2.8220 ho        1 MOL      0.428625
    123 H57        -4.8050   -3.1640    3.1770 hc        1 MOL      0.112481
    124 H58        -4.8350   -4.9000    3.4290 hc        1 MOL      0.112481
    125 H59        -3.6440   -4.1370    2.2270 hc        1 MOL      0.112481
    126 N11        -8.1950   -2.6130    0.0640 n         1 MOL     -0.797110
    127 C39        -9.2830   -2.4140   -0.9330 c3        1 MOL      0.120756
    128 C40        -9.9350   -1.0270   -0.9320 c         1 MOL      0.573046
    129 O19       -10.4390   -0.5560   -1.9720 o         1 MOL     -0.584777
    130 C41       -10.2180   -3.5430   -0.8470 c3        1 MOL      0.324149
    131 C42       -11.2160   -3.5740   -2.0130 c3        1 MOL     -0.228905
    132 O20       -10.9280   -3.4430    0.4160 oh        1 MOL     -0.616803
    133 H60        -8.4620   -2.4430    1.0270 hn        1 MOL      0.385819
    134 H61        -8.8920   -2.4690   -1.9520 h1        1 MOL      0.105731
    135 H62        -9.6400   -4.4710   -0.9200 h1        1 MOL      0.025850
    136 H63       -10.3090   -3.2000    1.1110 ho        1 MOL      0.359980
    137 H64       -10.6600   -3.3900   -2.9330 hc        1 MOL      0.062693
    138 H65       -11.7180   -4.5400   -2.0590 hc        1 MOL      0.062693
    139 H66       -11.9590   -2.7980   -1.8690 hc        1 MOL      0.062693
    140 N12        -9.7550   -0.2730    0.1220 n         1 MOL     -0.409979
    141 C43       -10.3720    1.0200    0.3270 c3        1 MOL      0.044179
    142 C44        -9.2370    1.8560    0.9790 c         1 MOL      0.559710
    143 O21        -8.4640    1.3020    1.7500 o         1 MOL     -0.483404
    144 C45       -11.5900    0.8520    1.2410 c3        1 MOL     -0.099358
    145 C46       -12.6250    1.9880    1.0550 c3        1 MOL      0.018625
    146 C47       -13.3490    1.8540   -0.2870 c3        1 MOL     -0.030608
    147 C48       -14.4330    2.9360   -0.3350 c3        1 MOL      0.047076
    148 N13       -15.5970    2.6000    0.5660 n4        1 MOL     -0.293229
    149 H67        -9.3470   -0.7080    0.9330 hn        1 MOL      0.207470
    150 H68       -10.6210    1.5070   -0.6150 h1        1 MOL      0.080800
    151 H69       -11.2800    0.9050    2.2800 hc        1 MOL      0.060389
    152 H70       -12.1340   -0.0900    1.1270 hc        1 MOL      0.060389
    153 H71       -12.0280    2.8960    1.0400 hc        1 MOL     -0.003290
    154 H72       -13.3760    1.8760    1.8360 hc        1 MOL     -0.003290
    155 H73       -13.7970    0.8680   -0.4460 hc        1 MOL      0.042005
    156 H74       -12.6560    2.0220   -1.1140 hc        1 MOL      0.042005
    157 H75       -14.8680    2.9390   -1.3320 hx        1 MOL      0.074037
    158 H76       -13.9660    3.8980   -0.1680 hx        1 MOL      0.074037
    159 H77       -16.4620    2.9810    0.2140 hn        1 MOL      0.267146
    160 H78       -15.8210    1.6200    0.5320 hn        1 MOL      0.267146
    161 H79       -15.4300    2.9260    1.5150 hn        1 MOL      0.267146
    162 N14        -9.1590    3.1830    0.7340 n         1 MOL     -0.559525
    163 C49        -8.2000    4.1700    1.2610 c3        1 MOL      0.212425
    164 C50        -6.6960    3.7680    1.0240 c         1 MOL      0.298144
    165 O22        -5.9180    3.6900    1.9530 o         1 MOL     -0.502938
    166 C51        -8.5390    5.6590    0.9040 c3        1 MOL     -0.036194
    167 C52        -9.9800    5.9920    1.4740 c3        1 MOL     -0.446545
    168 C53       -10.2870    7.4400    1.2340 c         1 MOL      0.765338
    169 O23       -10.3300    7.8910    0.0530 o         1 MOL     -0.680477
    170 O24       -10.5820    8.1960    2.1670 o         1 MOL     -0.680477
    171 H80        -9.8490    3.6000    0.1160 hn        1 MOL      0.324696
    172 H81        -8.2720    4.0540    2.3450 h1        1 MOL      0.057763
    173 H82        -8.5160    5.8490   -0.1710 hc        1 MOL      0.072796
    174 H83        -7.7900    6.2280    1.4580 hc        1 MOL      0.072796
    175 H84        -9.8210    5.9140    2.5510 hc        1 MOL      0.106748
    176 H85       -10.7450    5.3580    1.0280 hc        1 MOL      0.106748
    177 N15        -6.2420    3.4730   -0.1710 n         1 MOL     -0.215711
    178 C54        -6.7210    3.9010   -1.4780 c3        1 MOL     -0.133269
    179 H86        -7.3330    4.7950   -1.3650 h1        1 MOL      0.061735
    180 H87        -5.8710    4.1230   -2.1230 h1        1 MOL      0.061735
    181 H88        -7.3190    3.1070   -1.9250 h1        1 MOL      0.061735
    182 H89        -5.3310    3.0400   -0.0860 hn        1 MOL      0.257398
    183 Ca1         6.3880    4.5490   -1.3190 Ca        1 MOL      1.736611
    184 O25         6.5450    2.7190   -3.4870 oh        1 MOL     -0.840854
    185 H90         6.6350    2.5730   -4.4210 ho        1 MOL      0.435453
    186 H91         7.1740    2.1190   -3.0840 ho        1 MOL      0.435453
@<TRIPOS>BOND
     1    1    2 1   
     2    1    4 1   
     3    1    5 1   
     4    1    6 1   
     5    2    3 2   
     6    2    7 1   
     7    7    8 1   
     8    7   15 1   
     9    8    9 1   
    10    8   11 1   
    11    8   16 1   
    12    9   10 2   
    13    9   19 1   
    14   11   12 1   
    15   11   17 1   
    16   11   18 1   
    17   12   13 1   
    18   12   14 1   
    19   19   20 1   
    20   19   28 1   
    21   20   21 1   
    22   20   23 1   
    23   20   29 1   
    24   21   22 2   
    25   21   41 1   
    26   23   24 1   
    27   23   30 1   
    28   23   31 1   
    29   24   25 1   
    30   24   32 1   
    31   24   33 1   
    32   25   26 1   
    33   25   34 1   
    34   25   35 1   
    35   26   27 1   
    36   26   36 1   
    37   26   37 1   
    38   27   38 1   
    39   27   39 1   
    40   27   40 1   
    41   41   42 1   
    42   41   49 1   
    43   42   43 1   
    44   42   45 1   
    45   42   50 1   
    46   43   44 2   
    47   43   53 1   
    48   45   46 1   
    49   45   51 1   
    50   45   52 1   
    51   46   47 1   
    52   46   48 1   
    53   53   54 1   
    54   53   57 1   
    55   54   55 1   
    56   54   58 1   
    57   54   59 1   
    58   55   56 2   
    59   55   60 1   
    60   60   61 1   
    61   60   68 1   
    62   61   62 1   
    63   61   64 1   
    64   61   69 1   
    65   62   63 2   
    66   62   72 1   
    67   64   65 1   
    68   64   70 1   
    69   64   71 1   
    70   65   66 1   
    71   65   67 1   
    72   72   73 1   
    73   72   76 1   
    74   73   74 1   
    75   73   77 1   
    76   73   78 1   
    77   74   75 2   
    78   74   79 1   
    79   79   80 1   
    80   79   86 1   
    81   80   81 1   
    82   80   83 1   
    83   80   87 1   
    84   81   82 2   
    85   81   93 1   
    86   83   84 1   
    87   83   85 1   
    88   83   88 1   
    89   84   90 1   
    90   84   91 1   
    91   84   92 1   
    92   85   89 1   
    93   93   94 1   
    94   93  101 1   
    95   94   95 1   
    96   94   97 1   
    97   94  102 1   
    98   95   96 2   
    99   95  112 1   
   100   97   98 1   
   101   97   99 1   
   102   97  103 1   
   103   98  100 1   
   104   98  104 1   
   105   98  105 1   
   106   99  106 1   
   107   99  107 1   
   108   99  108 1   
   109  100  109 1   
   110  100  110 1   
   111  100  111 1   
   112  112  113 1   
   113  112  119 1   
   114  113  114 1   
   115  113  116 1   
   116  113  120 1   
   117  114  115 2   
   118  114  126 1   
   119  116  117 1   
   120  116  118 1   
   121  116  121 1   
   122  117  123 1   
   123  117  124 1   
   124  117  125 1   
   125  118  122 1   
   126  126  127 1   
   127  126  133 1   
   128  127  128 1   
   129  127  130 1   
   130  127  134 1   
   131  128  129 2   
   132  128  140 1   
   133  130  131 1   
   134  130  132 1   
   135  130  135 1   
   136  131  137 1   
   137  131  138 1   
   138  131  139 1   
   139  132  136 1   
   140  140  141 1   
   141  140  149 1   
   142  141  142 1   
   143  141  144 1   
   144  141  150 1   
   145  142  143 2   
   146  142  162 1   
   147  144  145 1   
   148  144  151 1   
   149  144  152 1   
   150  145  146 1   
   151  145  153 1   
   152  145  154 1   
   153  146  147 1   
   154  146  155 1   
   155  146  156 1   
   156  147  148 1   
   157  147  157 1   
   158  147  158 1   
   159  148  159 1   
   160  148  160 1   
   161  148  161 1   
   162  162  163 1   
   163  162  171 1   
   164  163  164 1   
   165  163  166 1   
   166  163  172 1   
   167  164  165 2   
   168  164  177 1   
   169  166  167 1   
   170  166  173 1   
   171  166  174 1   
   172  167  168 1   
   173  167  175 1   
   174  167  176 1   
   175  168  169 1   
   176  168  170 1   
   177  177  178 1   
   178  177  182 1   
   179  178  179 1   
   180  178  180 1   
   181  178  181 1   
   182  184  185 1   
   183  184  186 1   
@<TRIPOS>SUBSTRUCTURE
     1 MOL         1 TEMP              0 ****  ****    0 ROOT
