@<TRIPOS>MOLECULE
MOL
  188   182     1     0     0
SMALL
resp


@<TRIPOS>ATOM
      1 C1          5.8810    3.5750    4.3440 c3        1 MOL     -0.416487
      2 C2          5.4810    2.9200    2.9750 c         1 MOL      0.693386
      3 O1          4.3830    3.1110    2.4590 o         1 MOL     -0.595888
      4 H1          6.3000    2.8130    5.0020 hc        1 MOL      0.101285
      5 H2          6.6220    4.3540    4.1720 hc        1 MOL      0.101285
      6 H3          4.9970    4.0100    4.8110 hc        1 MOL      0.101285
      7 N1          6.3890    2.1500    2.3670 n         1 MOL     -0.527866
      8 C3          6.2370    1.7050    0.9490 c3        1 MOL     -0.016295
      9 C4          5.6800    0.2490    0.7680 c         1 MOL      0.498933
     10 O2          4.8380   -0.1220   -0.0630 o         1 MOL     -0.530761
     11 C5          7.6410    1.7790    0.3080 c3        1 MOL      0.001884
     12 C6          8.7660    1.1110    1.1250 c         1 MOL      0.617553
     13 O3          8.5990    0.5530    2.2200 o         1 MOL     -0.651701
     14 O4          9.8670    1.0310    0.5280 o         1 MOL     -0.651701
     15 H4          7.1950    1.8110    2.8610 hn        1 MOL      0.230656
     16 H5          5.4940    2.3480    0.4790 h1        1 MOL      0.132911
     17 H6          7.9340    2.7850    0.0310 hc        1 MOL      0.027640
     18 H7          7.6620    1.2420   -0.6430 hc        1 MOL      0.027640
     19 N2          6.0680   -0.5680    1.7340 n         1 MOL     -0.349220
     20 C7          5.6390   -1.9250    2.0100 c3        1 MOL     -0.045625
     21 C8          6.1750   -2.7470    0.8260 c         1 MOL      0.452194
     22 O5          7.4080   -2.8300    0.5840 o         1 MOL     -0.471963
     23 C9          6.2120   -2.4490    3.3130 c3        1 MOL     -0.185641
     24 C10         5.6560   -1.7510    4.5230 c3        1 MOL      0.112269
     25 C11         6.1550   -2.3080    5.8830 c3        1 MOL     -0.097364
     26 C12         7.6380   -1.9960    6.1100 c3        1 MOL      0.146220
     27 N3          8.0640   -2.4610    7.4650 n4        1 MOL     -0.326155
     28 H8          6.9730   -0.3040    2.0680 hn        1 MOL      0.262550
     29 H9          4.5520   -1.9990    1.9310 h1        1 MOL      0.116862
     30 H10         7.2950   -2.3220    3.2950 hc        1 MOL      0.071448
     31 H11         5.9700   -3.4930    3.4620 hc        1 MOL      0.071448
     32 H12         4.5700   -1.6830    4.4290 hc        1 MOL      0.000083
     33 H13         5.9830   -0.7130    4.5930 hc        1 MOL      0.000083
     34 H14         5.9830   -3.3850    5.9300 hc        1 MOL      0.021211
     35 H15         5.7030   -1.8000    6.7350 hc        1 MOL      0.021211
     36 H16         7.8310   -0.9370    5.9800 hx        1 MOL      0.076759
     37 H17         8.2750   -2.5390    5.4040 hx        1 MOL      0.076759
     38 H18         7.6370   -1.9190    8.2100 hn        1 MOL      0.299332
     39 H19         7.7590   -3.3910    7.6840 hn        1 MOL      0.299332
     40 H20         9.0580   -2.3930    7.6530 hn        1 MOL      0.299332
     41 N4          5.2740   -3.4690    0.1310 n         1 MOL     -0.425670
     42 C13         5.5730   -4.2460   -1.0640 c3        1 MOL      0.159263
     43 C14         5.3560   -3.5240   -2.3910 c         1 MOL      0.577407
     44 O6          5.1130   -4.1190   -3.4110 o         1 MOL     -0.559538
     45 C15         4.7250   -5.5090   -1.0560 c3        1 MOL     -0.163107
     46 C16         3.1890   -5.2280   -0.9580 c         1 MOL      0.736991
     47 O7          2.3830   -6.1990   -0.9220 o         1 MOL     -0.763498
     48 O8          2.6410   -4.0850   -0.8580 o         1 MOL     -0.763498
     49 H21         4.3180   -3.5460    0.4430 hn        1 MOL      0.208727
     50 H22         6.6390   -4.4900   -1.1010 h1        1 MOL      0.032509
     51 H23         4.9610   -6.1150   -0.1780 hc        1 MOL      0.046851
     52 H24         4.9550   -6.0610   -1.9650 hc        1 MOL      0.046851
     53 N5          5.4530   -2.2090   -2.3010 n         1 MOL     -0.496387
     54 C17         5.3010   -1.2270   -3.3920 c3        1 MOL      0.162120
     55 C18         6.4350   -0.2150   -3.1380 c         1 MOL      0.672483
     56 O9          7.5350   -0.5750   -2.8750 o         1 MOL     -0.528034
     57 H25         5.6720   -1.8290   -1.3880 hn        1 MOL      0.294396
     58 H26         4.3540   -0.7040   -3.2610 h1        1 MOL      0.023660
     59 H27         5.3730   -1.6340   -4.3980 h1        1 MOL      0.023660
     60 N6          6.2860    1.0690   -3.3960 n         1 MOL     -0.672341
     61 C19         5.0200    1.9060   -3.6200 c3        1 MOL      0.155023
     62 C20         5.1450    3.1690   -2.7100 c         1 MOL      0.437244
     63 O10         6.2360    3.7050   -2.5670 o         1 MOL     -0.502387
     64 C21         4.9900    2.2630   -5.1020 c3        1 MOL     -0.190161
     65 C22         4.7860    1.0000   -6.0420 c         1 MOL      0.568199
     66 N7          3.7110    1.0190   -6.8260 n         1 MOL     -0.798469
     67 O11         5.6410    0.0790   -6.1060 o         1 MOL     -0.490580
     68 H28         7.1050    1.6320   -3.5780 hn        1 MOL      0.358980
     69 H29         4.2020    1.2570   -3.2900 h1        1 MOL      0.050901
     70 H30         5.9420    2.7040   -5.3670 hc        1 MOL      0.079793
     71 H31         4.1970    2.9840   -5.3210 hc        1 MOL      0.079793
     72 H32         3.0470    1.7870   -6.8370 hn        1 MOL      0.374169
     73 H33         3.6110    0.2840   -7.5190 hn        1 MOL      0.374169
     74 N8          4.0840    3.7550   -2.1740 n         1 MOL     -0.383110
     75 C23         2.5890    3.3510   -2.1510 c3        1 MOL     -0.198899
     76 C24         1.7410    4.2310   -1.1910 c         1 MOL      0.722476
     77 O12         2.3240    4.8890   -0.3690 o         1 MOL     -0.488600
     78 H34         4.3050    4.4810   -1.5130 hn        1 MOL      0.286110
     79 H35         2.7050    2.3590   -1.7150 h1        1 MOL      0.082587
     80 H36         2.0320    3.2690   -3.0840 h1        1 MOL      0.082587
     81 N9          0.4120    4.1220   -1.3580 n         1 MOL     -0.661270
     82 C25        -0.5690    4.8950   -0.6210 c3        1 MOL      0.210777
     83 C26        -1.8280    4.1150   -0.3610 c         1 MOL      0.540947
     84 O13        -2.0070    3.1160   -1.0660 o         1 MOL     -0.547861
     85 C27        -0.9500    6.1300   -1.4200 c3        1 MOL     -0.188706
     86 C28        -1.7000    7.1770   -0.6660 ca        1 MOL      0.013031
     87 C29        -3.0650    7.3680   -0.9020 ca        1 MOL     -0.083094
     88 C30        -1.0860    8.0230    0.2690 ca        1 MOL     -0.083094
     89 C31        -3.8760    8.2670   -0.1910 ca        1 MOL     -0.333909
     90 C32        -1.8510    8.9850    0.9530 ca        1 MOL     -0.333909
     91 C33        -3.2650    9.0740    0.8030 ca        1 MOL      0.384395
     92 O14        -4.0220    9.7890    1.6250 oh        1 MOL     -0.462919
     93 H37        -0.0670    3.5520   -2.0310 hn        1 MOL      0.330590
     94 H38        -0.1270    5.3130    0.2850 h1        1 MOL      0.005644
     95 H39        -1.3660    5.7810   -2.3620 hc        1 MOL      0.077706
     96 H40         0.0130    6.6010   -1.6400 hc        1 MOL      0.077706
     97 H41        -3.5090    6.6140   -1.5370 ha        1 MOL      0.118217
     98 H42        -0.0050    8.0250    0.3840 ha        1 MOL      0.118217
     99 H43        -4.9350    8.2570   -0.4050 ha        1 MOL      0.159776
    100 H44        -1.3680    9.5170    1.7570 ha        1 MOL      0.159776
    101 H45        -3.4510   10.3460    2.1640 ho        1 MOL      0.356061
    102 N10        -2.6110    4.5210    0.6040 n         1 MOL     -0.277309
    103 C34        -3.6360    3.7640    1.2800 c3        1 MOL     -0.294657
    104 C35        -4.8730    3.7080    0.3160 c         1 MOL      0.602373
    105 O15        -5.0600    4.5240   -0.6480 o         1 MOL     -0.497064
    106 C36        -4.0330    4.4840    2.6230 c3        1 MOL      0.243564
    107 C37        -3.2410    3.8990    3.7820 c3        1 MOL     -0.093509
    108 C38        -3.9900    5.9740    2.5620 c3        1 MOL      0.043765
    109 C39        -3.6770    4.2690    5.2400 c3        1 MOL     -0.195355
    110 H46        -2.2870    5.3630    1.0610 hn        1 MOL      0.225825
    111 H47        -3.2550    2.7680    1.5170 h1        1 MOL      0.134751
    112 H48        -5.0720    4.1760    2.7300 hc        1 MOL     -0.007063
    113 H49        -2.1940    4.1380    3.5590 hc        1 MOL      0.035501
    114 H50        -3.3020    2.8130    3.7600 hc        1 MOL      0.035501
    115 H51        -2.9590    6.3360    2.5380 hc        1 MOL     -0.009631
    116 H52        -4.5220    6.3750    1.6960 hc        1 MOL     -0.009631
    117 H53        -4.4480    6.4110    3.4510 hc        1 MOL     -0.009631
    118 H54        -3.3150    5.2060    5.6780 hc        1 MOL      0.056469
    119 H55        -4.7640    4.3460    5.2240 hc        1 MOL      0.056469
    120 H56        -3.3490    3.4970    5.9430 hc        1 MOL      0.056469
    121 N11        -5.8010    2.7190    0.3900 n         1 MOL     -0.555353
    122 C40        -6.8470    2.3950   -0.5680 c3        1 MOL      0.159385
    123 C41        -6.8310    0.8680   -1.0550 c         1 MOL      0.652554
    124 O16        -6.4010   -0.0100   -0.3660 o         1 MOL     -0.512253
    125 C42        -8.2300    2.8670    0.0250 c3        1 MOL      0.113082
    126 O17        -8.5300    1.9910    1.1060 oh        1 MOL     -0.562971
    127 H57        -5.7330    2.1360    1.2110 hn        1 MOL      0.297301
    128 H58        -6.7810    3.0180   -1.4610 h1        1 MOL      0.025917
    129 H59        -8.8860    2.6930   -0.8310 h1        1 MOL      0.021213
    130 H60        -8.2050    3.9290    0.2690 h1        1 MOL      0.021213
    131 H61        -9.3960    2.2930    1.3630 ho        1 MOL      0.387840
    132 N12        -7.4570    0.6010   -2.2100 n         1 MOL     -0.641117
    133 C43        -7.4960   -0.6620   -2.9460 c3        1 MOL      0.110815
    134 C44        -8.1420   -1.9620   -2.2280 c         1 MOL      0.361471
    135 O18        -7.8710   -3.1470   -2.6030 o         1 MOL     -0.413828
    136 C45        -6.1060   -0.9120   -3.5860 c3        1 MOL     -0.291402
    137 H62        -7.5330    1.4190   -2.8050 hn        1 MOL      0.331861
    138 H63        -8.1310   -0.5600   -3.8240 h1        1 MOL      0.097101
    139 H64        -6.1850   -1.6550   -4.3790 hc        1 MOL      0.104593
    140 H65        -5.6670   -0.0040   -4.0010 hc        1 MOL      0.104593
    141 H66        -5.4220   -1.3390   -2.8580 hc        1 MOL      0.104593
    142 N13        -9.1690   -1.7470   -1.2980 n         1 MOL     -0.440709
    143 C46        -9.9380   -2.8150   -0.5920 c3        1 MOL      0.323134
    144 C47        -9.0090   -3.8890    0.0040 c         1 MOL      0.216267
    145 O19        -9.3010   -5.1190   -0.0700 o         1 MOL     -0.458881
    146 C48       -11.0470   -3.3170   -1.5650 c3        1 MOL     -0.370961
    147 H67        -9.3270   -0.8040   -0.9660 hn        1 MOL      0.269833
    148 H68       -10.3980   -2.2870    0.2490 h1        1 MOL      0.000837
    149 H69       -11.7950   -3.9000   -1.0310 hc        1 MOL      0.108950
    150 H70       -11.4610   -2.4140   -2.0210 hc        1 MOL      0.108950
    151 H71       -10.6690   -3.9860   -2.3490 hc        1 MOL      0.108950
    152 N14        -7.8250   -3.4870    0.4490 n         1 MOL     -0.085725
    153 C49        -6.8290   -4.3380    1.0280 c3        1 MOL     -0.210448
    154 C50        -7.0270   -4.6610    2.5150 c         1 MOL      0.529796
    155 O20        -6.8950   -5.8510    2.9060 o         1 MOL     -0.513887
    156 C51        -5.4280   -3.8140    0.7060 c3        1 MOL      0.313858
    157 C52        -4.3370   -4.9340    0.6120 c3        1 MOL     -0.439169
    158 C53        -2.9700   -4.4660    0.2870 c         1 MOL      0.791978
    159 O21        -2.0510   -4.4000    1.1390 o         1 MOL     -0.754259
    160 O22        -2.6760   -4.3900   -0.9250 o         1 MOL     -0.754259
    161 H72        -7.7440   -2.4880    0.6190 hn        1 MOL      0.139316
    162 H73        -6.9880   -5.2800    0.5060 h1        1 MOL      0.146978
    163 H74        -5.1280   -2.9710    1.3290 hc        1 MOL     -0.039097
    164 H75        -5.3810   -3.3550   -0.2840 hc        1 MOL     -0.039097
    165 H76        -4.6440   -5.5410   -0.2400 hc        1 MOL      0.111594
    166 H77        -4.3440   -5.5690    1.5010 hc        1 MOL      0.111594
    167 N15        -7.2380   -3.6260    3.3480 n         1 MOL     -0.333298
    168 C54        -7.4950   -3.8200    4.7720 c3        1 MOL     -0.312494
    169 H78        -6.8970   -4.6540    5.1380 h1        1 MOL      0.132351
    170 H79        -7.2270   -2.9140    5.3160 h1        1 MOL      0.132351
    171 H80        -8.5520   -4.0370    4.9250 h1        1 MOL      0.132351
    172 H81        -7.3810   -2.6820    3.0220 hn        1 MOL      0.271078
    173 Ca1         0.1790   -4.6600   -0.3340 Ca        1 MOL      1.792635
    174 O23        -0.5740   -6.3950   -2.1260 oh        1 MOL     -0.849984
    175 H82        -0.3000   -7.3110   -2.1810 ho        1 MOL      0.418032
    176 H83        -1.1590   -6.2700   -2.8780 ho        1 MOL      0.418032
    177 O24         0.4400   -3.5060   -2.7210 oh        1 MOL     -0.849984
    178 H84         1.2770   -3.4490   -3.1750 ho        1 MOL      0.418032
    179 H85        -0.2070   -3.2240   -3.3610 ho        1 MOL      0.418032
    180 O25        -0.7820   -2.0420   -0.1220 oh        1 MOL     -0.849984
    181 H86        -1.7350   -2.0790   -0.2510 ho        1 MOL      0.418032
    182 H87        -0.5390   -1.1540   -0.3610 ho        1 MOL      0.418032
    183 O26         0.8390   -3.6010    1.9790 oh        1 MOL     -0.849984
    184 H88         0.4740   -2.9420    2.5770 ho        1 MOL      0.418032
    185 H89         1.7100   -3.7870    2.3270 ho        1 MOL      0.418032
    186 O27         0.1590   -7.1540    0.6990 oh        1 MOL     -0.849984
    187 H90         1.0070   -7.5390    0.4960 ho        1 MOL      0.418032
    188 H91        -0.3560   -7.8900    1.0420 ho        1 MOL      0.418032
@<TRIPOS>BOND
     1    1    2 1   
     2    1    4 1   
     3    1    5 1   
     4    1    6 1   
     5    2    3 2   
     6    2    7 1   
     7    7    8 1   
     8    7   15 1   
     9    8    9 1   
    10    8   11 1   
    11    8   16 1   
    12    9   10 2   
    13    9   19 1   
    14   11   12 1   
    15   11   17 1   
    16   11   18 1   
    17   12   13 1   
    18   12   14 1   
    19   19   20 1   
    20   19   28 1   
    21   20   21 1   
    22   20   23 1   
    23   20   29 1   
    24   21   22 2   
    25   21   41 1   
    26   23   24 1   
    27   23   30 1   
    28   23   31 1   
    29   24   25 1   
    30   24   32 1   
    31   24   33 1   
    32   25   26 1   
    33   25   34 1   
    34   25   35 1   
    35   26   27 1   
    36   26   36 1   
    37   26   37 1   
    38   27   38 1   
    39   27   39 1   
    40   27   40 1   
    41   41   42 1   
    42   41   49 1   
    43   42   43 1   
    44   42   45 1   
    45   42   50 1   
    46   43   44 2   
    47   43   53 1   
    48   45   46 1   
    49   45   51 1   
    50   45   52 1   
    51   46   47 1   
    52   46   48 1   
    53   53   54 1   
    54   53   57 1   
    55   54   55 1   
    56   54   58 1   
    57   54   59 1   
    58   55   56 2   
    59   55   60 1   
    60   60   61 1   
    61   60   68 1   
    62   61   62 1   
    63   61   64 1   
    64   61   69 1   
    65   62   63 2   
    66   62   74 1   
    67   64   65 1   
    68   64   70 1   
    69   64   71 1   
    70   65   66 1   
    71   65   67 2   
    72   66   72 1   
    73   66   73 1   
    74   74   75 1   
    75   74   78 1   
    76   75   76 1   
    77   75   79 1   
    78   75   80 1   
    79   76   77 2   
    80   76   81 1   
    81   81   82 1   
    82   81   93 1   
    83   82   83 1   
    84   82   85 1   
    85   82   94 1   
    86   83   84 2   
    87   83  102 1   
    88   85   86 1   
    89   85   95 1   
    90   85   96 1   
    91   86   87 ar  
    92   86   88 ar  
    93   87   89 ar  
    94   87   97 1   
    95   88   90 ar  
    96   88   98 1   
    97   89   91 ar  
    98   89   99 1   
    99   90   91 ar  
   100   90  100 1   
   101   91   92 1   
   102   92  101 1   
   103  102  103 1   
   104  102  110 1   
   105  103  104 1   
   106  103  106 1   
   107  103  111 1   
   108  104  105 2   
   109  104  121 1   
   110  106  107 1   
   111  106  108 1   
   112  106  112 1   
   113  107  109 1   
   114  107  113 1   
   115  107  114 1   
   116  108  115 1   
   117  108  116 1   
   118  108  117 1   
   119  109  118 1   
   120  109  119 1   
   121  109  120 1   
   122  121  122 1   
   123  121  127 1   
   124  122  123 1   
   125  122  125 1   
   126  122  128 1   
   127  123  124 2   
   128  123  132 1   
   129  125  126 1   
   130  125  129 1   
   131  125  130 1   
   132  126  131 1   
   133  132  133 1   
   134  132  137 1   
   135  133  134 1   
   136  133  136 1   
   137  133  138 1   
   138  134  135 2   
   139  134  142 1   
   140  136  139 1   
   141  136  140 1   
   142  136  141 1   
   143  142  143 1   
   144  142  147 1   
   145  143  144 1   
   146  143  146 1   
   147  143  148 1   
   148  144  145 2   
   149  144  152 1   
   150  146  149 1   
   151  146  150 1   
   152  146  151 1   
   153  152  153 1   
   154  152  161 1   
   155  153  154 1   
   156  153  156 1   
   157  153  162 1   
   158  154  155 2   
   159  154  167 1   
   160  156  157 1   
   161  156  163 1   
   162  156  164 1   
   163  157  158 1   
   164  157  165 1   
   165  157  166 1   
   166  158  159 1   
   167  158  160 1   
   168  167  168 1   
   169  167  172 1   
   170  168  169 1   
   171  168  170 1   
   172  168  171 1   
   173  174  175 1   
   174  174  176 1   
   175  177  178 1   
   176  177  179 1   
   177  180  181 1   
   178  180  182 1   
   179  183  184 1   
   180  183  185 1   
   181  186  187 1   
   182  186  188 1   
@<TRIPOS>SUBSTRUCTURE
     1 MOL         1 TEMP              0 ****  ****    0 ROOT
