@<TRIPOS>MOLECULE
MOL
  192   187     1     0     0
SMALL
resp


@<TRIPOS>ATOM
      1 C1          4.2900    3.9600   -3.6320 c3        1 MOL     -0.368703
      2 C2          5.0530    3.0530   -2.5950 c         1 MOL      0.699152
      3 O1          4.3780    2.5410   -1.6690 o         1 MOL     -0.662385
      4 H1          3.3520    3.4820   -3.9120 hc        1 MOL      0.095895
      5 H2          4.0830    4.9310   -3.1830 hc        1 MOL      0.095895
      6 H3          4.9080    4.0950   -4.5210 hc        1 MOL      0.095895
      7 N1          6.3520    2.7140   -2.8150 n         1 MOL     -0.680254
      8 C3          7.0940    1.4940   -2.3610 c3        1 MOL      0.250632
      9 C4          6.1450    0.3060   -1.9540 c         1 MOL      0.311998
     10 O2          5.8040    0.1550   -0.7810 o         1 MOL     -0.505780
     11 C5          8.1500    1.7950   -1.2190 c3        1 MOL     -0.028820
     12 C6          7.7180    2.8180   -0.2380 c         1 MOL      0.760930
     13 O3          6.5590    2.8640    0.3030 o         1 MOL     -0.747037
     14 O4          8.4930    3.7700   -0.0120 o         1 MOL     -0.747037
     15 H4          6.8570    3.3420   -3.4270 hn        1 MOL      0.342679
     16 H5          7.6640    1.1190   -3.2030 h1        1 MOL     -0.005845
     17 H6          9.0710    2.1060   -1.7080 hc        1 MOL     -0.012650
     18 H7          8.3510    0.8760   -0.6690 hc        1 MOL     -0.012650
     19 N2          5.7180   -0.4600   -3.0170 n         1 MOL     -0.369068
     20 C7          4.8590   -1.6230   -2.9980 c3        1 MOL      0.082136
     21 C8          5.5080   -2.8530   -2.3640 c         1 MOL      0.410234
     22 O5          5.5810   -3.8900   -2.9680 o         1 MOL     -0.528509
     23 C9          3.3930   -1.4590   -2.4870 c3        1 MOL      0.331741
     24 C10         2.4100   -2.6740   -2.7980 c3        1 MOL     -0.259469
     25 C11         2.7920   -0.2610   -3.2020 c3        1 MOL     -0.306117
     26 C12         2.4630   -3.1660   -4.2660 c3        1 MOL     -0.078002
     27 H8          6.1010   -0.0970   -3.8720 hn        1 MOL      0.261654
     28 H9          4.9020   -1.8880   -4.0570 h1        1 MOL      0.017358
     29 H10         3.4040   -1.3410   -1.4090 hc        1 MOL     -0.049126
     30 H11         1.4050   -2.3610   -2.5320 hc        1 MOL      0.118915
     31 H12         2.6700   -3.5660   -2.2230 hc        1 MOL      0.118915
     32 H13         1.7090   -0.1790   -3.1050 hc        1 MOL      0.069736
     33 H14         3.2850    0.6220   -2.8020 hc        1 MOL      0.069736
     34 H15         2.9710   -0.2380   -4.2700 hc        1 MOL      0.069736
     35 H16         1.5970   -3.7650   -4.5430 hc        1 MOL      0.006799
     36 H17         2.4550   -2.3170   -4.9520 hc        1 MOL      0.006799
     37 H18         3.3170   -3.8290   -4.4210 hc        1 MOL      0.006799
     38 N3          5.9620   -2.7700   -1.0440 n         1 MOL     -0.176751
     39 C13         6.5560   -3.8870   -0.3560 c3        1 MOL     -0.028508
     40 C14         5.6490   -5.1030   -0.1690 c         1 MOL      0.636194
     41 O6          6.1820   -6.1810   -0.2460 o         1 MOL     -0.610762
     42 C15         7.2320   -3.4040    0.9790 c3        1 MOL     -0.228578
     43 C16         7.9880   -2.1120    0.7770 c         1 MOL      0.781804
     44 O7          8.0420   -1.2610    1.7000 o         1 MOL     -0.709198
     45 O8          8.7270   -2.0030   -0.1960 o         1 MOL     -0.709198
     46 H19         5.8400   -1.8630   -0.6180 hn        1 MOL      0.161844
     47 H20         7.3660   -4.2680   -0.9840 h1        1 MOL      0.060628
     48 H21         7.8770   -4.1420    1.4340 hc        1 MOL      0.056847
     49 H22         6.4690   -3.2820    1.7470 hc        1 MOL      0.056847
     50 N4          4.3520   -4.9900    0.0890 n         1 MOL     -0.512138
     51 C17         3.6590   -3.8600    0.6420 c3        1 MOL      0.084321
     52 C18         2.3490   -4.3950    1.2710 c         1 MOL      0.523619
     53 O9          1.8660   -5.5110    0.9700 o         1 MOL     -0.561021
     54 H23         3.7590   -5.7910   -0.0440 hn        1 MOL      0.280960
     55 H24         3.4620   -3.1470   -0.1610 h1        1 MOL      0.037079
     56 H25         4.2640   -3.2790    1.3490 h1        1 MOL      0.037079
     57 N5          1.7280   -3.7070    2.2470 n         1 MOL     -0.476039
     58 C19         2.0820   -2.4010    2.8520 c3        1 MOL      0.085773
     59 C20         2.2230   -1.2010    1.8220 c         1 MOL      0.263644
     60 O10         3.3630   -0.6600    1.6370 o         1 MOL     -0.463012
     61 C21         3.2450   -2.4930    3.8990 c3        1 MOL     -0.296086
     62 C22         3.8120   -1.1780    4.4500 c         1 MOL      0.675260
     63 O11         5.0630   -1.1190    4.5370 o         1 MOL     -0.653012
     64 O12         2.9840   -0.2620    4.6670 o         1 MOL     -0.653012
     65 H26         0.8270   -4.0760    2.4890 hn        1 MOL      0.283696
     66 H27         1.2190   -2.1650    3.4780 h1        1 MOL      0.060143
     67 H28         4.0590   -3.0290    3.4090 hc        1 MOL      0.078433
     68 H29         2.9640   -3.1130    4.7460 hc        1 MOL      0.078433
     69 N6          1.1930   -0.9370    1.0450 n         1 MOL     -0.092651
     70 C23        -0.2020   -1.2800    1.3720 c3        1 MOL     -0.000710
     71 C24        -0.7440   -2.4240    0.5020 c         1 MOL      0.551565
     72 O13        -0.0910   -2.9250   -0.4010 o         1 MOL     -0.524626
     73 H30         1.4380   -0.2540    0.3530 hn        1 MOL      0.054964
     74 H31        -0.7890   -0.3590    1.3080 h1        1 MOL      0.065885
     75 H32        -0.4280   -1.4690    2.4240 h1        1 MOL      0.065885
     76 N7         -1.9150   -2.8920    0.8370 n         1 MOL     -0.477156
     77 C25        -2.5250   -4.0570    0.2590 c3        1 MOL     -0.062751
     78 C26        -3.2810   -3.7540   -0.9910 c         1 MOL      0.494384
     79 O14        -3.6080   -4.7000   -1.7410 o         1 MOL     -0.557390
     80 C27        -3.2000   -4.8030    1.3950 c3        1 MOL      0.186065
     81 C28        -4.2970   -4.0810    2.2470 c3        1 MOL     -0.471230
     82 C29        -5.5570   -3.7710    1.4850 c         1 MOL      0.596460
     83 N8         -6.5100   -4.6710    1.4130 n         1 MOL     -0.714977
     84 O15        -5.7070   -2.7470    0.8040 o         1 MOL     -0.510404
     85 H33        -2.3770   -2.4090    1.5930 hn        1 MOL      0.259393
     86 H34        -1.6980   -4.7240   -0.0170 h1        1 MOL      0.157202
     87 H35        -2.4970   -5.3320    2.0280 hc        1 MOL     -0.000537
     88 H36        -3.6500   -5.6770    0.9470 hc        1 MOL     -0.000537
     89 H37        -3.8370   -3.2450    2.7880 hc        1 MOL      0.145492
     90 H38        -4.5070   -4.6840    3.1250 hc        1 MOL      0.145492
     91 H39        -6.2600   -5.5460    1.8490 hn        1 MOL      0.333549
     92 H40        -7.2720   -4.5510    0.7550 hn        1 MOL      0.333549
     93 N9         -3.5470   -2.4940   -1.4540 n         1 MOL     -0.144989
     94 C30        -4.0700   -2.1820   -2.7470 c3        1 MOL     -0.063897
     95 C31        -5.5620   -1.7110   -2.8330 c         1 MOL      0.386988
     96 O16        -6.0350   -1.5020   -3.9470 o         1 MOL     -0.578203
     97 C32        -3.1880   -1.0830   -3.4040 c3        1 MOL     -0.047492
     98 C33        -1.8900   -1.6390   -3.8320 c3        1 MOL      0.041930
     99 C34        -2.9780    0.1160   -2.5190 c3        1 MOL      0.041930
    100 H41        -3.1070   -1.7860   -0.8800 hn        1 MOL      0.114286
    101 H42        -4.1620   -3.1220   -3.3080 h1        1 MOL      0.122004
    102 H43        -3.6170   -0.7160   -4.3320 hc        1 MOL      0.050920
    103 H44        -1.1550   -0.8920   -4.0960 hc        1 MOL     -0.018301
    104 H45        -1.3520   -2.2600   -3.1130 hc        1 MOL     -0.018301
    105 H46        -1.9970   -2.2790   -4.7120 hc        1 MOL     -0.018301
    106 H47        -3.9040    0.3190   -1.9780 hc        1 MOL     -0.018301
    107 H48        -2.1500    0.1150   -1.8120 hc        1 MOL     -0.018301
    108 H49        -2.8480    1.0320   -3.0960 hc        1 MOL     -0.018301
    109 N10        -6.2270   -1.4690   -1.7560 n         1 MOL     -0.045355
    110 C35        -7.5850   -0.9310   -1.7830 c3        1 MOL     -0.068533
    111 C36        -7.5630    0.5410   -1.2920 c         1 MOL      0.483423
    112 O17        -8.6160    1.1400   -1.4700 o         1 MOL     -0.554578
    113 C37        -8.5330   -1.8140   -0.9170 c3        1 MOL      0.177371
    114 C38        -8.7180   -3.2170   -1.3730 c         1 MOL      0.414657
    115 N11        -9.3860   -3.4990   -2.4110 n         1 MOL     -0.622719
    116 O18        -8.2130   -4.0950   -0.6830 o         1 MOL     -0.498300
    117 H50        -5.6470   -1.5770   -0.9320 hn        1 MOL      0.113776
    118 H51        -8.0250   -0.8580   -2.7740 h1        1 MOL      0.082327
    119 H52        -9.5300   -1.3770   -0.8670 hc        1 MOL     -0.036986
    120 H53        -8.1170   -1.8510    0.0850 hc        1 MOL     -0.036986
    121 H54        -9.9610   -2.8540   -2.9380 hn        1 MOL      0.330164
    122 H55        -9.4660   -4.4970   -2.5140 hn        1 MOL      0.330164
    123 N12        -6.4810    1.0620   -0.7270 n         1 MOL     -0.374873
    124 C39        -6.3650    2.3950   -0.0580 c3        1 MOL      0.098110
    125 C40        -4.9470    2.8960    0.1690 c         1 MOL      0.368671
    126 O19        -3.9560    2.1590    0.0920 o         1 MOL     -0.399355
    127 C41        -7.2210    2.3360    1.2280 c3        1 MOL     -0.421096
    128 C42        -6.8330    1.1980    2.1620 ca        1 MOL      0.042207
    129 C43        -7.6030   -0.0410    2.0390 ca        1 MOL     -0.103182
    130 C44        -5.6580    1.2580    2.8660 ca        1 MOL     -0.103182
    131 C45        -7.1960   -1.1850    2.7130 ca        1 MOL     -0.323417
    132 C46        -5.2730    0.0910    3.5500 ca        1 MOL     -0.323417
    133 C47        -6.0340   -1.1000    3.6030 ca        1 MOL      0.340871
    134 O20        -5.7110   -2.1850    4.3420 oh        1 MOL     -0.465406
    135 H56        -5.6700    0.4840   -0.5710 hn        1 MOL      0.352267
    136 H57        -6.7780    3.1110   -0.7820 h1        1 MOL      0.081546
    137 H58        -8.2850    2.2580    1.0110 hc        1 MOL      0.149825
    138 H59        -7.0150    3.2390    1.8120 hc        1 MOL      0.149825
    139 H60        -8.4870   -0.1080    1.4180 ha        1 MOL      0.130847
    140 H61        -5.0630    2.1500    2.8070 ha        1 MOL      0.130847
    141 H62        -7.7270   -2.1230    2.6020 ha        1 MOL      0.184983
    142 H63        -4.2880    0.1250    3.9820 ha        1 MOL      0.184983
    143 H64        -6.4600   -2.7770    4.3470 ho        1 MOL      0.335123
    144 N13        -4.8450    4.1660    0.6050 n         1 MOL     -0.524904
    145 C48        -3.6560    4.9730    0.9270 c3        1 MOL      0.354438
    146 C49        -2.6010    5.2270   -0.1350 c         1 MOL      0.208622
    147 O21        -2.1190    6.3410   -0.3370 o         1 MOL     -0.518465
    148 C50        -3.1600    4.6280    2.2750 c3        1 MOL     -0.072338
    149 C51        -2.1410    5.5970    2.8880 c3        1 MOL     -0.455332
    150 C52        -1.5680    5.0990    4.2120 c         1 MOL      0.773008
    151 O22        -1.4930    5.8660    5.1890 o         1 MOL     -0.728273
    152 O23        -0.9890    4.0250    4.2670 o         1 MOL     -0.728273
    153 H65        -5.6630    4.7710    0.6420 hn        1 MOL      0.271658
    154 H66        -3.9370    6.0180    1.0320 h1        1 MOL      0.002071
    155 H67        -2.8180    3.5860    2.2640 hc        1 MOL      0.052389
    156 H68        -4.0400    4.6850    2.9050 hc        1 MOL      0.052389
    157 H69        -2.6500    6.5580    2.9080 hc        1 MOL      0.114508
    158 H70        -1.3040    5.7520    2.1900 hc        1 MOL      0.114508
    159 N14        -2.2390    4.2450   -0.8890 n         1 MOL     -0.190088
    160 C53        -1.0590    4.3040   -1.7950 c3        1 MOL     -0.151013
    161 C54        -1.2440    5.2400   -3.0100 c         1 MOL      0.516112
    162 O24        -0.2480    5.5990   -3.6610 o         1 MOL     -0.546865
    163 C55        -0.5720    2.8240   -2.1550 c3        1 MOL     -0.182318
    164 C56        -0.2870    2.0120   -0.9060 c3        1 MOL      0.383624
    165 C57         0.9680    2.4590   -0.1880 c         1 MOL      0.714598
    166 O25         0.9900    3.3960    0.5590 o         1 MOL     -0.657897
    167 O26         1.9430    1.7060   -0.2100 o         1 MOL     -0.657897
    168 H71        -2.6290    3.3490   -0.6540 hn        1 MOL      0.197785
    169 H72        -0.2050    4.6850   -1.2380 h1        1 MOL      0.171173
    170 H73         0.2470    2.8690   -2.8770 hc        1 MOL      0.042029
    171 H74        -1.3490    2.2970   -2.7000 hc        1 MOL      0.042029
    172 H75        -0.1740    1.0110   -1.3160 hc        1 MOL     -0.103139
    173 H76        -1.1040    1.9970   -0.1920 hc        1 MOL     -0.103139
    174 N15        -2.4780    5.6140   -3.2910 n         1 MOL     -0.162768
    175 C58        -2.9330    6.4150   -4.4160 c3        1 MOL     -0.237885
    176 H77        -3.9370    6.1000   -4.7030 h1        1 MOL      0.089032
    177 H78        -2.9510    7.4670   -4.1310 h1        1 MOL      0.089032
    178 H79        -2.2560    6.2770   -5.2580 h1        1 MOL      0.089032
    179 H80        -3.2550    5.1950   -2.7860 hn        1 MOL      0.196125
    180 Ca1         4.3830    1.7510    1.0540 Ca        1 MOL      1.777287
    181 O27         3.4130    4.4190    1.3970 oh        1 MOL     -0.817792
    182 H81         2.5340    4.0830    1.1990 ho        1 MOL      0.389707
    183 H82         3.2750    5.3630    1.5300 ho        1 MOL      0.389707
    184 O28         2.7510    1.9910    3.2700 oh        1 MOL     -0.817792
    185 H83         2.9230    1.2920    3.8960 ho        1 MOL      0.389707
    186 H84         1.7900    1.9970    3.1730 ho        1 MOL      0.389707
    187 O29         5.7740    3.2160    3.1860 oh        1 MOL     -0.817792
    188 H85         5.3180    3.9950    3.5310 ho        1 MOL      0.389707
    189 H86         6.6960    3.4470    3.2200 ho        1 MOL      0.389707
    190 O30         5.8640    0.2910    2.5220 oh        1 MOL     -0.817792
    191 H87         6.6640   -0.1050    2.1650 ho        1 MOL      0.389707
    192 H88         5.6130   -0.2830    3.2440 ho        1 MOL      0.389707
@<TRIPOS>BOND
     1    1    2 1   
     2    1    4 1   
     3    1    5 1   
     4    1    6 1   
     5    2    3 2   
     6    2    7 1   
     7    7    8 1   
     8    7   15 1   
     9    8    9 1   
    10    8   11 1   
    11    8   16 1   
    12    9   10 2   
    13    9   19 1   
    14   11   12 1   
    15   11   17 1   
    16   11   18 1   
    17   12   13 1   
    18   12   14 1   
    19   19   20 1   
    20   19   27 1   
    21   20   21 1   
    22   20   23 1   
    23   20   28 1   
    24   21   22 2   
    25   21   38 1   
    26   23   24 1   
    27   23   25 1   
    28   23   29 1   
    29   24   26 1   
    30   24   30 1   
    31   24   31 1   
    32   25   32 1   
    33   25   33 1   
    34   25   34 1   
    35   26   35 1   
    36   26   36 1   
    37   26   37 1   
    38   38   39 1   
    39   38   46 1   
    40   39   40 1   
    41   39   42 1   
    42   39   47 1   
    43   40   41 2   
    44   40   50 1   
    45   42   43 1   
    46   42   48 1   
    47   42   49 1   
    48   43   44 1   
    49   43   45 1   
    50   50   51 1   
    51   50   54 1   
    52   51   52 1   
    53   51   55 1   
    54   51   56 1   
    55   52   53 2   
    56   52   57 1   
    57   57   58 1   
    58   57   65 1   
    59   58   59 1   
    60   58   61 1   
    61   58   66 1   
    62   59   60 2   
    63   59   69 1   
    64   61   62 1   
    65   61   67 1   
    66   61   68 1   
    67   62   63 1   
    68   62   64 1   
    69   69   70 1   
    70   69   73 1   
    71   70   71 1   
    72   70   74 1   
    73   70   75 1   
    74   71   72 2   
    75   71   76 1   
    76   76   77 1   
    77   76   85 1   
    78   77   78 1   
    79   77   80 1   
    80   77   86 1   
    81   78   79 2   
    82   78   93 1   
    83   80   81 1   
    84   80   87 1   
    85   80   88 1   
    86   81   82 1   
    87   81   89 1   
    88   81   90 1   
    89   82   83 1   
    90   82   84 2   
    91   83   91 1   
    92   83   92 1   
    93   93   94 1   
    94   93  100 1   
    95   94   95 1   
    96   94   97 1   
    97   94  101 1   
    98   95   96 2   
    99   95  109 1   
   100   97   98 1   
   101   97   99 1   
   102   97  102 1   
   103   98  103 1   
   104   98  104 1   
   105   98  105 1   
   106   99  106 1   
   107   99  107 1   
   108   99  108 1   
   109  109  110 1   
   110  109  117 1   
   111  110  111 1   
   112  110  113 1   
   113  110  118 1   
   114  111  112 2   
   115  111  123 1   
   116  113  114 1   
   117  113  119 1   
   118  113  120 1   
   119  114  115 1   
   120  114  116 2   
   121  115  121 1   
   122  115  122 1   
   123  123  124 1   
   124  123  135 1   
   125  124  125 1   
   126  124  127 1   
   127  124  136 1   
   128  125  126 2   
   129  125  144 1   
   130  127  128 1   
   131  127  137 1   
   132  127  138 1   
   133  128  129 ar  
   134  128  130 ar  
   135  129  131 ar  
   136  129  139 1   
   137  130  132 ar  
   138  130  140 1   
   139  131  133 ar  
   140  131  141 1   
   141  132  133 ar  
   142  132  142 1   
   143  133  134 1   
   144  134  143 1   
   145  144  145 1   
   146  144  153 1   
   147  145  146 1   
   148  145  148 1   
   149  145  154 1   
   150  146  147 2   
   151  146  159 1   
   152  148  149 1   
   153  148  155 1   
   154  148  156 1   
   155  149  150 1   
   156  149  157 1   
   157  149  158 1   
   158  150  151 1   
   159  150  152 1   
   160  159  160 1   
   161  159  168 1   
   162  160  161 1   
   163  160  163 1   
   164  160  169 1   
   165  161  162 2   
   166  161  174 1   
   167  163  164 1   
   168  163  170 1   
   169  163  171 1   
   170  164  165 1   
   171  164  172 1   
   172  164  173 1   
   173  165  166 1   
   174  165  167 1   
   175  174  175 1   
   176  174  179 1   
   177  175  176 1   
   178  175  177 1   
   179  175  178 1   
   180  181  182 1   
   181  181  183 1   
   182  184  185 1   
   183  184  186 1   
   184  187  188 1   
   185  187  189 1   
   186  190  191 1   
   187  190  192 1   
@<TRIPOS>SUBSTRUCTURE
     1 MOL         1 TEMP              0 ****  ****    0 ROOT
