@<TRIPOS>MOLECULE
MOL
  192   187     1     0     0
SMALL
resp


@<TRIPOS>ATOM
      1 C1         -4.7320   -2.4250    5.8590 c3        1 MOL     -0.292104
      2 C2         -4.9460   -1.9890    4.3830 c         1 MOL      0.736191
      3 O1         -5.0040   -2.7880    3.4620 o         1 MOL     -0.593517
      4 H1         -4.8550   -1.5620    6.5130 hc        1 MOL      0.077083
      5 H2         -5.4640   -3.1880    6.1230 hc        1 MOL      0.077083
      6 H3         -3.7260   -2.8280    5.9770 hc        1 MOL      0.077083
      7 N1         -4.9360   -0.6760    4.0770 n         1 MOL     -0.604601
      8 C3         -4.9170   -0.0820    2.7950 c3        1 MOL      0.749248
      9 C4         -3.5550   -0.2190    2.1340 c         1 MOL     -0.028072
     10 O2         -3.3450    0.4490    1.1140 o         1 MOL     -0.254678
     11 C5         -5.4270    1.3640    2.8660 c3        1 MOL     -0.124222
     12 C6         -6.6690    1.6550    3.6550 c         1 MOL      0.589423
     13 O3         -6.8010    1.2210    4.8410 o         1 MOL     -0.662333
     14 O4         -7.6010    2.1400    2.9890 o         1 MOL     -0.662333
     15 H4         -5.1180   -0.0450    4.8490 hn        1 MOL      0.232676
     16 H5         -5.6330   -0.5730    2.1460 h1        1 MOL     -0.084600
     17 H6         -5.4480    1.7440    1.8480 hc        1 MOL     -0.053899
     18 H7         -4.6140    1.7950    3.4550 hc        1 MOL     -0.053899
     19 N2         -2.5930   -1.0240    2.7080 n         1 MOL     -0.433153
     20 C7         -1.1590   -0.9440    2.4020 c3        1 MOL      0.331672
     21 C8         -0.4920   -2.3700    1.9410 c         1 MOL      0.448093
     22 O5         -1.0020   -3.4230    2.5330 o         1 MOL     -0.524228
     23 C9         -0.5790   -0.4040    3.6570 c3        1 MOL     -0.233321
     24 C10        -0.7150    1.1140    3.6750 c3        1 MOL     -0.052660
     25 C11         0.2020    1.7120    4.7110 c3        1 MOL      0.005271
     26 C12         0.1820    3.2720    4.7870 c3        1 MOL      0.060834
     27 N3          0.6640    3.9520    3.5510 n4        1 MOL     -0.328622
     28 H8         -2.9030   -1.4590    3.5670 hn        1 MOL      0.254690
     29 H9         -0.9730   -0.3380    1.5230 h1        1 MOL      0.028151
     30 H10         0.4690   -0.6450    3.4960 hc        1 MOL      0.075912
     31 H11        -0.9770   -0.8090    4.5930 hc        1 MOL      0.075912
     32 H12        -1.7430    1.4270    3.8720 hc        1 MOL      0.072997
     33 H13        -0.4610    1.3910    2.6530 hc        1 MOL      0.072997
     34 H14         1.2400    1.3730    4.6480 hc        1 MOL      0.039291
     35 H15        -0.1160    1.3100    5.6670 hc        1 MOL      0.039291
     36 H16         0.9040    3.5730    5.5460 hx        1 MOL      0.044173
     37 H17        -0.7900    3.6690    5.0690 hx        1 MOL      0.044173
     38 H18         0.7000    4.9250    3.8220 hn        1 MOL      0.317730
     39 H19         1.5820    3.6080    3.3220 hn        1 MOL      0.317730
     40 H20        -0.0060    3.9390    2.7840 hn        1 MOL      0.317730
     41 N4          0.5780   -2.4420    1.1700 n         1 MOL     -0.462189
     42 C13         1.2100   -1.3070    0.4210 c3        1 MOL      0.141955
     43 C14         1.6610   -0.1610    1.3090 c         1 MOL      0.382487
     44 O6          1.3380    1.0100    1.0930 o         1 MOL     -0.666950
     45 C15         0.4840   -0.8840   -0.8700 c3        1 MOL      0.070332
     46 C16         0.4330   -2.1040   -1.8260 c         1 MOL      0.394435
     47 O7          1.2350   -3.0690   -1.8140 o         1 MOL     -0.688697
     48 O8         -0.5530   -2.2140   -2.6050 o         1 MOL     -0.688697
     49 H21         0.9610   -3.3790    1.0540 hn        1 MOL      0.294470
     50 H22         2.1800   -1.7180    0.1220 h1        1 MOL      0.011884
     51 H23         0.9070   -0.0510   -1.4350 hc        1 MOL      0.067246
     52 H24        -0.5830   -0.7540   -0.6810 hc        1 MOL      0.067246
     53 N5          2.5010   -0.3510    2.2720 n         1 MOL     -0.036893
     54 C17         3.3430   -1.4730    2.5680 c3        1 MOL     -0.240425
     55 C18         4.4520   -1.1880    3.5280 c         1 MOL      0.590948
     56 O9          4.3110   -0.1810    4.2650 o         1 MOL     -0.580551
     57 H25         2.7300    0.5220    2.7300 hn        1 MOL      0.219339
     58 H26         3.8350   -1.7320    1.6320 h1        1 MOL      0.068832
     59 H27         2.7570   -2.2700    3.0230 h1        1 MOL      0.068832
     60 N6          5.5590   -1.9670    3.6740 n         1 MOL     -0.415414
     61 C19         5.8730   -3.1490    2.8700 c3        1 MOL      0.075220
     62 C20         6.4060   -2.9020    1.4520 c         1 MOL      0.553039
     63 O10         7.1580   -1.8870    1.3530 o         1 MOL     -0.443821
     64 C21         6.9540   -4.0860    3.5740 c3        1 MOL     -0.238056
     65 C22         8.1300   -3.2810    4.2210 c         1 MOL      0.712726
     66 O11         8.0030   -2.7520    5.3530 o         1 MOL     -0.692268
     67 O12         9.1230   -3.1320    3.5150 o         1 MOL     -0.692268
     68 H28         6.2640   -1.6050    4.2940 hn        1 MOL      0.300608
     69 H29         5.0370   -3.8440    2.9070 h1        1 MOL      0.013221
     70 H30         7.1710   -4.8680    2.8510 hc        1 MOL      0.032868
     71 H31         6.3810   -4.4930    4.4110 hc        1 MOL      0.032868
     72 N7          5.9960   -3.6680    0.4170 n         1 MOL     -0.349476
     73 C23         6.4720   -3.5460   -0.9670 c3        1 MOL     -0.347038
     74 C24         6.2810   -2.3200   -1.9030 c         1 MOL      0.596467
     75 O13         6.5040   -2.4790   -3.1020 o         1 MOL     -0.556008
     76 H32         5.3280   -4.4050    0.5830 hn        1 MOL      0.269265
     77 H33         6.0210   -4.3130   -1.5980 h1        1 MOL      0.161022
     78 H34         7.5460   -3.6960   -0.9600 h1        1 MOL      0.161022
     79 N8          5.7100   -1.2200   -1.3420 n         1 MOL     -0.371004
     80 C25         5.2100   -0.0160   -1.9390 c3        1 MOL      0.065366
     81 C26         5.2920    1.1540   -0.9700 c         1 MOL      0.622921
     82 O14         5.1700    0.9580    0.2240 o         1 MOL     -0.488206
     83 C27         3.7380   -0.2390   -2.3800 c3        1 MOL      0.351373
     84 C28         3.6790   -1.4560   -3.3660 c3        1 MOL     -0.300533
     85 O15         3.0660    0.9430   -2.8580 oh        1 MOL     -0.637420
     86 H35         5.8670   -1.1370   -0.3540 hn        1 MOL      0.183606
     87 H36         5.9540    0.1930   -2.7150 h1        1 MOL      0.039874
     88 H37         3.2690   -0.6610   -1.4830 h1        1 MOL     -0.021830
     89 H38         2.1530    0.7230   -3.0350 ho        1 MOL      0.429440
     90 H39         3.9580   -2.4230   -2.9440 hc        1 MOL      0.078918
     91 H40         2.6800   -1.4630   -3.8100 hc        1 MOL      0.078918
     92 H41         4.2940   -1.1510   -4.2160 hc        1 MOL      0.078918
     93 N9          5.5390    2.3490   -1.5690 n         1 MOL     -0.492470
     94 C29         5.6070    3.6070   -0.7510 c3        1 MOL     -0.228663
     95 C30         4.2630    4.2140   -0.4880 c         1 MOL      0.565065
     96 O16         4.1960    5.1210    0.3060 o         1 MOL     -0.541817
     97 C31         6.5570    4.6710   -1.3780 c3        1 MOL      0.151183
     98 C32         6.0440    5.3120   -2.6600 c3        1 MOL      0.223731
     99 C33         7.9670    3.9960   -1.5560 c3        1 MOL     -0.252070
    100 C34         6.6790    6.7110   -3.0890 c3        1 MOL     -0.304822
    101 H42         5.7340    2.4450   -2.5560 hn        1 MOL      0.292024
    102 H43         6.0590    3.3260    0.2050 h1        1 MOL      0.175520
    103 H44         6.5530    5.5730   -0.7690 hc        1 MOL      0.004382
    104 H45         4.9720    5.4570   -2.5550 hc        1 MOL     -0.057359
    105 H46         6.2460    4.6110   -3.4690 hc        1 MOL     -0.057359
    106 H47         8.3170    3.4800   -0.6660 hc        1 MOL      0.072680
    107 H48         7.9290    3.2710   -2.3710 hc        1 MOL      0.072680
    108 H49         8.7320    4.6880   -1.9130 hc        1 MOL      0.072680
    109 H50         6.4550    7.4790   -2.3580 hc        1 MOL      0.075482
    110 H51         7.7600    6.5640   -3.1650 hc        1 MOL      0.075482
    111 H52         6.3320    6.9700   -4.0920 hc        1 MOL      0.075482
    112 N10         3.1000    3.6720   -1.0370 n         1 MOL     -0.332532
    113 C35         1.7910    4.3570   -1.0500 c3        1 MOL     -0.042736
    114 C36         0.5520    3.4330   -1.0280 c         1 MOL      0.669569
    115 O17         0.4740    2.3640   -1.6810 o         1 MOL     -0.523969
    116 C37         1.8150    5.2860   -2.2240 c3        1 MOL      0.388878
    117 C38         0.6070    6.2200   -2.1300 c3        1 MOL     -0.398773
    118 O18         1.8690    4.6200   -3.4920 oh        1 MOL     -0.544338
    119 H53         3.1530    2.8130   -1.5650 hn        1 MOL      0.194733
    120 H54         1.6460    5.1070   -0.2740 h1        1 MOL     -0.014094
    121 H55         2.7130    5.8870   -2.0940 h1        1 MOL      0.024575
    122 H56         2.8180    4.4740   -3.6240 ho        1 MOL      0.317222
    123 H57        -0.3030    5.6530   -2.2860 hc        1 MOL      0.102259
    124 H58         0.5410    6.8590   -1.2470 hc        1 MOL      0.102259
    125 H59         0.7020    6.8530   -3.0220 hc        1 MOL      0.102259
    126 N11        -0.4560    3.7910   -0.2350 n         1 MOL     -0.534600
    127 C39        -1.7790    3.1810   -0.0590 c3        1 MOL      0.032594
    128 C40        -2.6140    2.9590   -1.3510 c         1 MOL      0.597813
    129 O19        -2.3500    3.5950   -2.3470 o         1 MOL     -0.518675
    130 C41        -2.6460    3.9880    0.9360 c3        1 MOL      0.158148
    131 C42        -3.2950    5.3060    0.4970 c3        1 MOL     -0.255895
    132 O20        -1.8440    4.2710    2.0370 oh        1 MOL     -0.704037
    133 H60        -0.2830    4.7160    0.1280 hn        1 MOL      0.313970
    134 H61        -1.7990    2.2220    0.4590 h1        1 MOL      0.011073
    135 H62        -3.3360    3.2260    1.3050 h1        1 MOL      0.111267
    136 H63        -2.3520    4.7720    2.6710 ho        1 MOL      0.448033
    137 H64        -3.8940    5.7440    1.2960 hc        1 MOL      0.086377
    138 H65        -2.5470    5.9650    0.0630 hc        1 MOL      0.086377
    139 H66        -4.0180    5.1030   -0.2880 hc        1 MOL      0.086377
    140 N12        -3.5280    1.9650   -1.2560 n         1 MOL     -0.319693
    141 C43        -4.2930    1.4820   -2.3990 c3        1 MOL     -0.158268
    142 C44        -4.7770    0.0320   -2.4220 c         1 MOL      0.743549
    143 O21        -5.2950   -0.4440   -3.3970 o         1 MOL     -0.653212
    144 C45        -5.4470    2.4710   -2.5290 c3        1 MOL     -0.186156
    145 C46        -6.4450    2.4870   -1.4300 c3        1 MOL      0.175499
    146 C47        -7.5670    3.4380   -1.7940 c3        1 MOL     -0.209310
    147 C48        -8.7270    3.3760   -0.8200 c3        1 MOL      0.034630
    148 N13        -9.5570    2.1920   -1.1110 n4        1 MOL     -0.441254
    149 H67        -3.7130    1.5910   -0.3350 hn        1 MOL      0.070683
    150 H68        -3.6590    1.5170   -3.2800 h1        1 MOL      0.146281
    151 H69        -5.9170    2.2740   -3.4910 hc        1 MOL      0.071991
    152 H70        -5.0990    3.4920   -2.6780 hc        1 MOL      0.071991
    153 H71        -6.1310    2.7530   -0.4290 hc        1 MOL     -0.002355
    154 H72        -6.8780    1.4930   -1.3420 hc        1 MOL     -0.002355
    155 H73        -7.8820    3.3970   -2.8340 hc        1 MOL      0.075982
    156 H74        -7.1390    4.4440   -1.7830 hc        1 MOL      0.075982
    157 H75        -9.2570    4.3270   -0.9900 hx        1 MOL      0.099959
    158 H76        -8.2460    3.3810    0.1580 hx        1 MOL      0.099959
    159 H77        -9.1860    1.3460   -0.7140 hn        1 MOL      0.353426
    160 H78       -10.4510    2.3160   -0.6530 hn        1 MOL      0.353426
    161 H79        -9.5780    2.0160   -2.1070 hn        1 MOL      0.353426
    162 N14        -4.6550   -0.7290   -1.3520 n         1 MOL     -0.384358
    163 C49        -4.9570   -2.1640   -1.3530 c3        1 MOL     -0.104403
    164 C50        -6.3490   -2.6030   -0.8960 c         1 MOL      0.354810
    165 O22        -6.7430   -2.1400    0.1510 o         1 MOL     -0.450559
    166 C51        -3.7680   -2.8290   -0.6140 c3        1 MOL      0.152879
    167 C52        -3.7030   -4.3570   -0.7380 c3        1 MOL     -0.289026
    168 C53        -3.6190   -4.8340   -2.1400 c         1 MOL      0.535377
    169 O23        -4.5860   -5.4670   -2.6710 o         1 MOL     -0.696294
    170 O24        -2.6070   -4.6010   -2.8850 o         1 MOL     -0.696294
    171 H80        -4.4070   -0.3140   -0.4700 hn        1 MOL      0.229131
    172 H81        -4.8460   -2.5100   -2.3770 h1        1 MOL      0.190801
    173 H82        -3.6600   -2.6650    0.4600 hc        1 MOL      0.002581
    174 H83        -2.8890   -2.3440   -1.0440 hc        1 MOL      0.002581
    175 H84        -4.5890   -4.8020   -0.2770 hc        1 MOL      0.112095
    176 H85        -2.8550   -4.7270   -0.1640 hc        1 MOL      0.112095
    177 N15        -7.0420   -3.5300   -1.5700 n         1 MOL     -0.264326
    178 C54        -8.4440   -3.9340   -1.3460 c3        1 MOL     -0.022097
    179 H86        -8.4970   -5.0170   -1.2380 h1        1 MOL      0.049442
    180 H87        -8.8190   -3.4600   -0.4400 h1        1 MOL      0.049442
    181 H88        -9.0520   -3.6240   -2.1970 h1        1 MOL      0.049442
    182 H89        -6.6870   -3.7150   -2.5070 hn        1 MOL      0.286152
    183 Ca1        -0.1670   -4.6450   -3.4240 Ca        1 MOL      1.736755
    184 O25         2.2850   -5.6380   -2.7660 oh        1 MOL     -0.862763
    185 H90         2.6020   -6.1180   -2.0090 ho        1 MOL      0.432467
    186 H91         3.0700   -5.2980   -3.1910 ho        1 MOL      0.432467
    187 O26         0.9170   -4.8820   -6.0110 oh        1 MOL     -0.862763
    188 H92         0.4540   -4.6570   -6.8160 ho        1 MOL      0.432467
    189 H93         1.8300   -4.9610   -6.2730 ho        1 MOL      0.432467
    190 O27        -1.2550   -3.1930   -5.3570 oh        1 MOL     -0.862763
    191 H94        -2.1810   -2.9290   -5.3430 ho        1 MOL      0.432467
    192 H95        -0.9550   -2.9630   -6.2440 ho        1 MOL      0.432467
@<TRIPOS>BOND
     1    1    2 1   
     2    1    4 1   
     3    1    5 1   
     4    1    6 1   
     5    2    3 2   
     6    2    7 1   
     7    7    8 1   
     8    7   15 1   
     9    8    9 1   
    10    8   11 1   
    11    8   16 1   
    12    9   10 2   
    13    9   19 1   
    14   11   12 1   
    15   11   17 1   
    16   11   18 1   
    17   12   13 1   
    18   12   14 1   
    19   19   20 1   
    20   19   28 1   
    21   20   21 1   
    22   20   23 1   
    23   20   29 1   
    24   21   22 2   
    25   21   41 1   
    26   23   24 1   
    27   23   30 1   
    28   23   31 1   
    29   24   25 1   
    30   24   32 1   
    31   24   33 1   
    32   25   26 1   
    33   25   34 1   
    34   25   35 1   
    35   26   27 1   
    36   26   36 1   
    37   26   37 1   
    38   27   38 1   
    39   27   39 1   
    40   27   40 1   
    41   41   42 1   
    42   41   49 1   
    43   42   43 1   
    44   42   45 1   
    45   42   50 1   
    46   43   44 2   
    47   43   53 1   
    48   45   46 1   
    49   45   51 1   
    50   45   52 1   
    51   46   47 1   
    52   46   48 1   
    53   53   54 1   
    54   53   57 1   
    55   54   55 1   
    56   54   58 1   
    57   54   59 1   
    58   55   56 2   
    59   55   60 1   
    60   60   61 1   
    61   60   68 1   
    62   61   62 1   
    63   61   64 1   
    64   61   69 1   
    65   62   63 2   
    66   62   72 1   
    67   64   65 1   
    68   64   70 1   
    69   64   71 1   
    70   65   66 1   
    71   65   67 1   
    72   72   73 1   
    73   72   76 1   
    74   73   74 1   
    75   73   77 1   
    76   73   78 1   
    77   74   75 2   
    78   74   79 1   
    79   79   80 1   
    80   79   86 1   
    81   80   81 1   
    82   80   83 1   
    83   80   87 1   
    84   81   82 2   
    85   81   93 1   
    86   83   84 1   
    87   83   85 1   
    88   83   88 1   
    89   84   90 1   
    90   84   91 1   
    91   84   92 1   
    92   85   89 1   
    93   93   94 1   
    94   93  101 1   
    95   94   95 1   
    96   94   97 1   
    97   94  102 1   
    98   95   96 2   
    99   95  112 1   
   100   97   98 1   
   101   97   99 1   
   102   97  103 1   
   103   98  100 1   
   104   98  104 1   
   105   98  105 1   
   106   99  106 1   
   107   99  107 1   
   108   99  108 1   
   109  100  109 1   
   110  100  110 1   
   111  100  111 1   
   112  112  113 1   
   113  112  119 1   
   114  113  114 1   
   115  113  116 1   
   116  113  120 1   
   117  114  115 2   
   118  114  126 1   
   119  116  117 1   
   120  116  118 1   
   121  116  121 1   
   122  117  123 1   
   123  117  124 1   
   124  117  125 1   
   125  118  122 1   
   126  126  127 1   
   127  126  133 1   
   128  127  128 1   
   129  127  130 1   
   130  127  134 1   
   131  128  129 2   
   132  128  140 1   
   133  130  131 1   
   134  130  132 1   
   135  130  135 1   
   136  131  137 1   
   137  131  138 1   
   138  131  139 1   
   139  132  136 1   
   140  140  141 1   
   141  140  149 1   
   142  141  142 1   
   143  141  144 1   
   144  141  150 1   
   145  142  143 2   
   146  142  162 1   
   147  144  145 1   
   148  144  151 1   
   149  144  152 1   
   150  145  146 1   
   151  145  153 1   
   152  145  154 1   
   153  146  147 1   
   154  146  155 1   
   155  146  156 1   
   156  147  148 1   
   157  147  157 1   
   158  147  158 1   
   159  148  159 1   
   160  148  160 1   
   161  148  161 1   
   162  162  163 1   
   163  162  171 1   
   164  163  164 1   
   165  163  166 1   
   166  163  172 1   
   167  164  165 2   
   168  164  177 1   
   169  166  167 1   
   170  166  173 1   
   171  166  174 1   
   172  167  168 1   
   173  167  175 1   
   174  167  176 1   
   175  168  169 1   
   176  168  170 1   
   177  177  178 1   
   178  177  182 1   
   179  178  179 1   
   180  178  180 1   
   181  178  181 1   
   182  184  185 1   
   183  184  186 1   
   184  187  188 1   
   185  187  189 1   
   186  190  191 1   
   187  190  192 1   
@<TRIPOS>SUBSTRUCTURE
     1 MOL         1 TEMP              0 ****  ****    0 ROOT
