@<TRIPOS>MOLECULE
MOL
  181   177     1     0     0
SMALL
resp


@<TRIPOS>ATOM
      1 C1          7.4390    1.8670    5.6120 c3        1 MOL     -0.367863
      2 C2          6.6560    1.3340    4.3950 c         1 MOL      0.772807
      3 O1          5.4560    1.5030    4.3890 o         1 MOL     -0.596772
      4 H1          8.2580    1.1850    5.8420 hc        1 MOL      0.089808
      5 H2          7.8410    2.8540    5.3820 hc        1 MOL      0.089808
      6 H3          6.7730    1.9370    6.4720 hc        1 MOL      0.089808
      7 N1          7.2450    0.6360    3.3740 n         1 MOL     -0.571684
      8 C3          8.6220    0.5490    3.0210 c3        1 MOL     -0.019861
      9 C4          8.9660   -0.8690    2.6010 c         1 MOL      0.581976
     10 O2          8.6130   -1.8170    3.2670 o         1 MOL     -0.513027
     11 C5          8.9150    1.6770    1.9620 c3        1 MOL     -0.262594
     12 C6          8.1470    1.6460    0.6860 c         1 MOL      0.657800
     13 O3          7.3000    2.6190    0.4730 o         1 MOL     -0.718046
     14 O4          8.1860    0.7480   -0.1570 o         1 MOL     -0.718046
     15 H4          6.6040    0.2350    2.7100 hn        1 MOL      0.380832
     16 H5          9.2520    0.7950    3.8820 h1        1 MOL      0.100073
     17 H6          9.9460    1.6560    1.6220 hc        1 MOL      0.060008
     18 H7          8.6170    2.6050    2.4570 hc        1 MOL      0.060008
     19 N2          9.7490   -0.9750    1.5180 n         1 MOL     -0.724795
     20 C7         10.0990   -2.1950    0.7700 c3        1 MOL      0.662861
     21 C8          8.9460   -3.0090    0.2730 c         1 MOL      0.077303
     22 O5          9.1210   -4.2440    0.1120 o         1 MOL     -0.505751
     23 C9         11.3010   -2.8960    1.4170 c3        1 MOL     -0.389161
     24 H8         10.1190   -0.1270    1.1150 hn        1 MOL      0.365567
     25 H9         10.6430   -1.7860   -0.0880 h1        1 MOL     -0.052864
     26 H10        11.0240   -3.3550    2.3700 hc        1 MOL      0.087234
     27 H11        11.5620   -3.6800    0.7150 hc        1 MOL      0.087234
     28 H12        12.0630   -2.1360    1.6050 hc        1 MOL      0.087234
     29 N3          7.7490   -2.4050    0.2270 n         1 MOL      0.109970
     30 C10         6.4770   -2.9430   -0.2070 c3        1 MOL     -0.032836
     31 C11         6.0990   -2.3660   -1.5560 c         1 MOL      0.314207
     32 O6          6.0660   -1.1520   -1.7870 o         1 MOL     -0.420730
     33 C12         5.3380   -2.7640    0.8730 c3        1 MOL      0.003085
     34 C13         5.1300   -1.3710    1.4090 c         1 MOL      0.534522
     35 O7          4.2940   -1.2800    2.3690 o         1 MOL     -0.635740
     36 O8          5.7460   -0.4000    0.9710 o         1 MOL     -0.635740
     37 H13         7.7480   -1.3990    0.2820 hn        1 MOL      0.035678
     38 H14         6.5630   -4.0190   -0.2200 h1        1 MOL      0.046764
     39 H15         5.6290   -3.3810    1.7320 hc        1 MOL      0.026141
     40 H16         4.4130   -3.2320    0.5440 hc        1 MOL      0.026141
     41 N4          5.6750   -3.1580   -2.4940 n         1 MOL     -0.262786
     42 C14         5.1770   -2.7500   -3.7820 c3        1 MOL     -0.247825
     43 C15         3.8660   -2.0080   -3.6220 c         1 MOL      0.654360
     44 O9          3.6570   -1.0660   -4.3020 o         1 MOL     -0.578618
     45 H17         5.6150   -4.1490   -2.2760 hn        1 MOL      0.246864
     46 H18         5.0690   -3.6250   -4.4320 h1        1 MOL      0.128607
     47 H19         5.9200   -2.1010   -4.2440 h1        1 MOL      0.128607
     48 N5          3.0770   -2.5080   -2.6790 n         1 MOL     -0.509893
     49 C16         1.8840   -1.8160   -2.2390 c3        1 MOL      0.228149
     50 C17         2.1980   -0.4260   -1.6790 c         1 MOL      0.230149
     51 O10         3.2460   -0.2040   -1.0500 o         1 MOL     -0.460543
     52 C18         0.9890   -2.6500   -1.2990 c3        1 MOL     -0.184988
     53 C19         0.3170   -3.8220   -2.0150 c         1 MOL      0.572802
     54 N6          0.1540   -4.8490   -1.2150 n         1 MOL     -0.749300
     55 O11         0.1640   -3.8840   -3.2270 o         1 MOL     -0.517379
     56 H20         3.3720   -3.2840   -2.1140 hn        1 MOL      0.294302
     57 H21         1.2780   -1.6990   -3.1320 h1        1 MOL      0.040690
     58 H22         0.1670   -2.0010   -0.9910 hc        1 MOL      0.060752
     59 H23         1.5510   -2.8970   -0.4040 hc        1 MOL      0.060752
     60 H24         0.4380   -4.7190   -0.2510 hn        1 MOL      0.375219
     61 H25        -0.0330   -5.7200   -1.6850 hn        1 MOL      0.375219
     62 N7          1.3040    0.4870   -1.8230 n         1 MOL     -0.166526
     63 C20         1.4970    1.8200   -1.4350 c3        1 MOL     -0.077469
     64 C21         1.5050    2.8580   -2.5710 c         1 MOL      0.660990
     65 O12         1.6930    2.4890   -3.7130 o         1 MOL     -0.603810
     66 H26         0.5030    0.1420   -2.3350 hn        1 MOL      0.237577
     67 H27         2.5120    1.9590   -1.0450 h1        1 MOL      0.099086
     68 H28         0.7220    1.9560   -0.6850 h1        1 MOL      0.099086
     69 N8          1.1240    4.0650   -2.2880 n         1 MOL     -0.447315
     70 C22         0.6750    4.6780   -1.0160 c3        1 MOL     -0.219848
     71 C23        -0.7690    4.1510   -0.6900 c         1 MOL      0.651562
     72 O13        -1.7150    4.3870   -1.4150 o         1 MOL     -0.508006
     73 C24         0.6890    6.1780   -1.1240 c3        1 MOL      0.389504
     74 C25         2.1310    6.6420   -1.1200 c3        1 MOL     -0.442369
     75 O14         0.0260    6.5500   -2.2930 oh        1 MOL     -0.550766
     76 H29         0.9790    4.6270   -3.1130 hn        1 MOL      0.294178
     77 H30         1.2840    4.2740   -0.2150 h1        1 MOL      0.126637
     78 H31         0.0790    6.6190   -0.3330 h1        1 MOL      0.022819
     79 H32        -0.8700    6.2450   -2.0840 ho        1 MOL      0.365670
     80 H33         2.7360    6.1360   -1.8710 hc        1 MOL      0.124501
     81 H34         2.1320    7.6430   -1.5610 hc        1 MOL      0.124501
     82 H35         2.6310    6.5640   -0.1540 hc        1 MOL      0.124501
     83 N9         -0.8550    3.4210    0.4450 n         1 MOL     -0.588431
     84 C26        -2.1400    2.8660    0.8450 c3        1 MOL      0.052416
     85 C27        -2.9210    4.0440    1.4150 c         1 MOL      0.632007
     86 O15        -2.3600    4.7440    2.3030 o         1 MOL     -0.598899
     87 C28        -1.9820    1.6510    1.7500 c3        1 MOL      0.231491
     88 C29        -1.7540    0.3800    0.8980 c3        1 MOL      0.008719
     89 C30        -3.1340    1.4410    2.7320 c3        1 MOL     -0.384622
     90 C31        -0.8650   -0.5970    1.5490 c3        1 MOL     -0.152496
     91 H36        -0.0120    3.2060    0.9430 hn        1 MOL      0.266787
     92 H37        -2.6860    2.4380    0.0060 h1        1 MOL      0.061206
     93 H38        -1.1340    1.6900    2.4360 hc        1 MOL      0.020419
     94 H39        -1.1470    0.6930    0.0490 hc        1 MOL     -0.021528
     95 H40        -2.6510   -0.1070    0.5170 hc        1 MOL     -0.021528
     96 H41        -2.9870    0.4410    3.1390 hc        1 MOL      0.099325
     97 H42        -3.1550    2.1320    3.5800 hc        1 MOL      0.099325
     98 H43        -4.0090    1.3140    2.0920 hc        1 MOL      0.099325
     99 H44         0.1190   -0.1340    1.6490 hc        1 MOL      0.023512
    100 H45        -1.2810   -0.8590    2.5210 hc        1 MOL      0.023512
    101 H46        -0.8370   -1.4920    0.9290 hc        1 MOL      0.023512
    102 N10        -4.2410    4.2260    1.1270 n         1 MOL     -0.573934
    103 C32        -5.1180    3.5340    0.1460 c3        1 MOL      0.044288
    104 C33        -6.2370    2.6290    0.7620 c         1 MOL      0.700402
    105 O16        -6.4120    2.4080    1.9600 o         1 MOL     -0.552762
    106 C34        -5.7100    4.5670   -0.8530 c3        1 MOL     -0.020596
    107 C35        -6.6510    5.6820   -0.2540 c         1 MOL      0.613135
    108 O17        -6.2270    6.3240    0.7630 o         1 MOL     -0.689374
    109 O18        -7.7260    5.8210   -0.9200 o         1 MOL     -0.689374
    110 H47        -4.7340    4.9070    1.6860 hn        1 MOL      0.337532
    111 H48        -4.5490    2.8830   -0.5140 h1        1 MOL      0.030297
    112 H49        -6.1260    4.0100   -1.6890 hc        1 MOL     -0.010233
    113 H50        -4.8520    5.0350   -1.3370 hc        1 MOL     -0.010233
    114 N11        -6.9700    2.0330   -0.2110 n         1 MOL     -0.750815
    115 C36        -7.7470    0.8300    0.1500 c3        1 MOL      0.321848
    116 C37        -8.2070    0.0190   -1.0890 c         1 MOL      0.315338
    117 O19        -8.7880    0.6280   -2.0010 o         1 MOL     -0.493426
    118 C38        -8.9240    1.3280    0.9800 c3        1 MOL     -0.226228
    119 C39        -9.9220    0.2510    1.2330 ca        1 MOL      0.011255
    120 C40       -11.0970    0.1140    0.4200 ca        1 MOL     -0.123141
    121 C41        -9.6850   -0.6490    2.2910 ca        1 MOL     -0.123141
    122 C42       -11.9910   -0.8850    0.6490 ca        1 MOL     -0.123447
    123 C43       -10.6010   -1.7160    2.4570 ca        1 MOL     -0.123447
    124 C44       -11.7430   -1.8180    1.6860 ca        1 MOL     -0.154874
    125 H51        -6.6800    2.2100   -1.1610 hn        1 MOL      0.389814
    126 H52        -7.3030    0.1820    0.9090 h1        1 MOL      0.002955
    127 H53        -9.5060    2.0100    0.3630 hc        1 MOL      0.123917
    128 H54        -8.6940    1.7130    1.9820 hc        1 MOL      0.123917
    129 H55       -11.2750    0.8560   -0.3370 ha        1 MOL      0.126283
    130 H56        -8.8590   -0.5220    2.9630 ha        1 MOL      0.126283
    131 H57       -12.8770   -1.0460    0.0530 ha        1 MOL      0.101973
    132 H58       -10.4040   -2.4710    3.2080 ha        1 MOL      0.101973
    133 H59       -12.4100   -2.6480    1.8730 ha        1 MOL      0.102907
    134 N12        -8.1560   -1.3240   -1.0730 n         1 MOL     -0.095314
    135 C45        -7.6220   -2.2390   -0.0390 c3        1 MOL      0.348519
    136 C46        -6.1430   -2.3020    0.0540 c         1 MOL      0.277197
    137 O20        -5.5070   -1.3340   -0.3090 o         1 MOL     -0.561076
    138 C47        -8.2950   -3.6180   -0.3350 c3        1 MOL     -0.138573
    139 C48        -9.5450   -3.3110   -1.1480 c3        1 MOL     -0.049537
    140 C49        -8.8610   -2.1370   -2.0010 c3        1 MOL      0.008775
    141 H60        -8.0010   -1.9490    0.9430 h1        1 MOL     -0.074176
    142 H61        -7.5870   -4.1890   -0.9270 hc        1 MOL      0.048805
    143 H62        -8.5490   -4.1590    0.5830 hc        1 MOL      0.048805
    144 H63        -9.9460   -4.1140   -1.7650 hc        1 MOL      0.030446
    145 H64       -10.3080   -2.8020   -0.5690 hc        1 MOL      0.030446
    146 H65        -8.1410   -2.5940   -2.6680 h1        1 MOL      0.045095
    147 H66        -9.5670   -1.5950   -2.6450 h1        1 MOL      0.045095
    148 N13        -5.4320   -3.2970    0.5750 n         1 MOL     -0.151054
    149 C50        -3.9660   -3.3540    0.9820 c3        1 MOL      0.129321
    150 C51        -3.6670   -4.2050    2.2700 c         1 MOL      0.341395
    151 O21        -2.7820   -5.1290    2.2520 o         1 MOL     -0.556314
    152 C52        -3.1050   -3.6650   -0.2220 c3        1 MOL     -0.033409
    153 C53        -3.0520   -5.0690   -0.7880 c3        1 MOL     -0.334256
    154 C54        -4.3240   -5.6670   -1.2840 c         1 MOL      0.833048
    155 O22        -4.6770   -5.5950   -2.4490 o         1 MOL     -0.764316
    156 O23        -5.0960   -6.2640   -0.5680 o         1 MOL     -0.764316
    157 H67        -5.9360   -4.1560    0.7830 hn        1 MOL      0.153120
    158 H68        -3.7020   -2.3590    1.3380 h1        1 MOL      0.092815
    159 H69        -2.0830   -3.3690    0.0240 hc        1 MOL      0.055909
    160 H70        -3.3880   -2.9360   -0.9790 hc        1 MOL      0.055909
    161 H71        -2.5760   -5.7730   -0.0970 hc        1 MOL      0.060037
    162 H72        -2.4080   -4.9740   -1.6620 hc        1 MOL      0.060037
    163 N14        -4.3010   -4.0360    3.3580 n         1 MOL     -0.262172
    164 C55        -5.2790   -3.0050    3.8330 c3        1 MOL     -0.075175
    165 H73        -6.1830   -3.0540    3.2260 h1        1 MOL      0.055078
    166 H74        -5.5320   -3.1960    4.8760 h1        1 MOL      0.055078
    167 H75        -4.8340   -2.0130    3.7430 h1        1 MOL      0.055078
    168 H76        -3.9440   -4.5620    4.1480 hn        1 MOL      0.259309
    169 Ca1         5.6290    1.2250   -1.0570 Ca        1 MOL      1.761988
    170 O24         5.4400    3.7910   -1.8240 oh        1 MOL     -0.886905
    171 H77         5.7180    3.9810   -2.7230 ho        1 MOL      0.425232
    172 H78         5.6600    4.5840   -1.3310 ho        1 MOL      0.425232
    173 O25         7.2300    1.3980   -3.1660 oh        1 MOL     -0.886905
    174 H79         7.2300    2.2100   -3.6820 ho        1 MOL      0.425232
    175 H80         8.0100    0.9250   -3.4630 ho        1 MOL      0.425232
    176 O26         4.0490    1.4850   -3.4380 oh        1 MOL     -0.886905
    177 H81         3.1330    1.6040   -3.7120 ho        1 MOL      0.425232
    178 H82         4.3870    0.8090   -4.0330 ho        1 MOL      0.425232
    179 O27         4.3840    2.2430    1.2900 oh        1 MOL     -0.886905
    180 H83         4.2730    1.5620    1.9440 ho        1 MOL      0.425232
    181 H84         4.6680    3.0100    1.7810 ho        1 MOL      0.425232
@<TRIPOS>BOND
     1    1    2 1   
     2    1    4 1   
     3    1    5 1   
     4    1    6 1   
     5    2    3 2   
     6    2    7 1   
     7    7    8 1   
     8    7   15 1   
     9    8    9 1   
    10    8   11 1   
    11    8   16 1   
    12    9   10 2   
    13    9   19 1   
    14   11   12 1   
    15   11   17 1   
    16   11   18 1   
    17   12   13 1   
    18   12   14 1   
    19   19   20 1   
    20   19   24 1   
    21   20   21 1   
    22   20   23 1   
    23   20   25 1   
    24   21   22 2   
    25   21   29 1   
    26   23   26 1   
    27   23   27 1   
    28   23   28 1   
    29   29   30 1   
    30   29   37 1   
    31   30   31 1   
    32   30   33 1   
    33   30   38 1   
    34   31   32 2   
    35   31   41 1   
    36   33   34 1   
    37   33   39 1   
    38   33   40 1   
    39   34   35 1   
    40   34   36 1   
    41   41   42 1   
    42   41   45 1   
    43   42   43 1   
    44   42   46 1   
    45   42   47 1   
    46   43   44 2   
    47   43   48 1   
    48   48   49 1   
    49   48   56 1   
    50   49   50 1   
    51   49   52 1   
    52   49   57 1   
    53   50   51 2   
    54   50   62 1   
    55   52   53 1   
    56   52   58 1   
    57   52   59 1   
    58   53   54 1   
    59   53   55 2   
    60   54   60 1   
    61   54   61 1   
    62   62   63 1   
    63   62   66 1   
    64   63   64 1   
    65   63   67 1   
    66   63   68 1   
    67   64   65 2   
    68   64   69 1   
    69   69   70 1   
    70   69   76 1   
    71   70   71 1   
    72   70   73 1   
    73   70   77 1   
    74   71   72 2   
    75   71   83 1   
    76   73   74 1   
    77   73   75 1   
    78   73   78 1   
    79   74   80 1   
    80   74   81 1   
    81   74   82 1   
    82   75   79 1   
    83   83   84 1   
    84   83   91 1   
    85   84   85 1   
    86   84   87 1   
    87   84   92 1   
    88   85   86 2   
    89   85  102 1   
    90   87   88 1   
    91   87   89 1   
    92   87   93 1   
    93   88   90 1   
    94   88   94 1   
    95   88   95 1   
    96   89   96 1   
    97   89   97 1   
    98   89   98 1   
    99   90   99 1   
   100   90  100 1   
   101   90  101 1   
   102  102  103 1   
   103  102  110 1   
   104  103  104 1   
   105  103  106 1   
   106  103  111 1   
   107  104  105 2   
   108  104  114 1   
   109  106  107 1   
   110  106  112 1   
   111  106  113 1   
   112  107  108 1   
   113  107  109 1   
   114  114  115 1   
   115  114  125 1   
   116  115  116 1   
   117  115  118 1   
   118  115  126 1   
   119  116  117 2   
   120  116  134 1   
   121  118  119 1   
   122  118  127 1   
   123  118  128 1   
   124  119  120 ar  
   125  119  121 ar  
   126  120  122 ar  
   127  120  129 1   
   128  121  123 ar  
   129  121  130 1   
   130  122  124 ar  
   131  122  131 1   
   132  123  124 ar  
   133  123  132 1   
   134  124  133 1   
   135  134  135 1   
   136  134  140 1   
   137  135  136 1   
   138  135  138 1   
   139  135  141 1   
   140  136  137 2   
   141  136  148 1   
   142  138  139 1   
   143  138  142 1   
   144  138  143 1   
   145  139  140 1   
   146  139  144 1   
   147  139  145 1   
   148  140  146 1   
   149  140  147 1   
   150  148  149 1   
   151  148  157 1   
   152  149  150 1   
   153  149  152 1   
   154  149  158 1   
   155  150  151 2   
   156  150  163 1   
   157  152  153 1   
   158  152  159 1   
   159  152  160 1   
   160  153  154 1   
   161  153  161 1   
   162  153  162 1   
   163  154  155 1   
   164  154  156 1   
   165  163  164 1   
   166  163  168 1   
   167  164  165 1   
   168  164  166 1   
   169  164  167 1   
   170  170  171 1   
   171  170  172 1   
   172  173  174 1   
   173  173  175 1   
   174  176  177 1   
   175  176  178 1   
   176  179  180 1   
   177  179  181 1   
@<TRIPOS>SUBSTRUCTURE
     1 MOL         1 TEMP              0 ****  ****    0 ROOT
