@<TRIPOS>MOLECULE
MOL
  179   176     1     0     0
SMALL
resp


@<TRIPOS>ATOM
      1 C1          0.4940   -4.0330    5.9090 c3        1 MOL     -0.371783
      2 C2          0.7420   -3.8940    4.3330 c         1 MOL      0.736045
      3 O1         -0.1540   -4.0790    3.5000 o         1 MOL     -0.602555
      4 H1          1.3930   -3.7290    6.4450 hc        1 MOL      0.114058
      5 H2         -0.3380   -3.3940    6.2040 hc        1 MOL      0.114058
      6 H3          0.2610   -5.0690    6.1510 hc        1 MOL      0.114058
      7 N1          1.9470   -3.5230    3.8500 n         1 MOL     -0.575807
      8 C3          2.4020   -3.2270    2.4730 c3        1 MOL     -0.093561
      9 C4          2.7300   -4.5780    1.7190 c         1 MOL      0.843987
     10 O2          3.1020   -5.5350    2.3980 o         1 MOL     -0.554537
     11 C5          3.5890   -2.2460    2.5610 c3        1 MOL     -0.141432
     12 C6          3.7580   -1.3760    1.2930 c         1 MOL      0.475763
     13 O3          4.2560   -0.1860    1.3770 o         1 MOL     -0.739601
     14 O4          3.3290   -1.7480    0.2140 o         1 MOL     -0.739601
     15 H4          2.5580   -3.2500    4.6080 hn        1 MOL      0.298726
     16 H5          1.5960   -2.7080    1.9540 h1        1 MOL      0.142178
     17 H6          4.5730   -2.7160    2.6590 hc        1 MOL      0.094212
     18 H7          3.3570   -1.5450    3.3630 hc        1 MOL      0.094212
     19 N2          2.6340   -4.6310    0.3900 n         1 MOL     -0.997490
     20 C7          3.3580   -5.6020   -0.5090 c3        1 MOL      0.535206
     21 C8          4.6320   -5.0740   -1.0790 c         1 MOL      0.214673
     22 O5          5.6430   -5.7190   -1.0100 o         1 MOL     -0.498611
     23 C9          2.4670   -6.1580   -1.5900 c3        1 MOL      0.123822
     24 C10         1.0240   -6.5070   -1.2500 c3        1 MOL     -0.057500
     25 C11         0.4170   -7.2580   -2.4830 c3        1 MOL      0.047049
     26 C12        -1.1370   -7.4430   -2.2680 c3        1 MOL     -0.068526
     27 N3         -1.8530   -8.1640   -3.3380 n4        1 MOL     -0.247504
     28 H8          2.0970   -3.9550   -0.1400 hn        1 MOL      0.451107
     29 H9          3.5770   -6.5050    0.0740 h1        1 MOL     -0.002302
     30 H10         2.8990   -7.0880   -1.9750 hc        1 MOL     -0.062482
     31 H11         2.4110   -5.3430   -2.3100 hc        1 MOL     -0.062482
     32 H12         0.4070   -5.6230   -1.0680 hc        1 MOL      0.028954
     33 H13         1.0450   -7.2370   -0.4420 hc        1 MOL      0.028954
     34 H14         0.8310   -8.2630   -2.4720 hc        1 MOL      0.024397
     35 H15         0.6670   -6.7110   -3.3960 hc        1 MOL      0.024397
     36 H16        -1.4500   -6.4050   -2.1560 hx        1 MOL      0.106751
     37 H17        -1.2840   -8.0570   -1.3860 hx        1 MOL      0.106751
     38 H18        -2.8460   -8.0430   -3.1970 hn        1 MOL      0.251029
     39 H19        -1.6740   -7.7840   -4.2510 hn        1 MOL      0.251029
     40 H20        -1.7220   -9.1720   -3.3120 hn        1 MOL      0.251029
     41 N4          4.6190   -3.8220   -1.5570 n         1 MOL     -0.061923
     42 C13         5.7810   -3.2540   -2.2500 c3        1 MOL     -0.311920
     43 C14         6.7810   -2.5590   -1.3340 c         1 MOL      0.482692
     44 O6          7.8970   -2.2490   -1.7590 o         1 MOL     -0.530079
     45 C15         5.1470   -2.3210   -3.3560 c3        1 MOL     -0.100769
     46 C16         4.2400   -1.2380   -2.8350 c         1 MOL      0.523257
     47 O7          4.6470   -0.3080   -2.0530 o         1 MOL     -0.658073
     48 O8          2.9590   -1.2470   -2.9080 o         1 MOL     -0.658073
     49 H21         3.8640   -3.1770   -1.4050 hn        1 MOL      0.151337
     50 H22         6.2830   -4.1120   -2.6910 h1        1 MOL      0.196187
     51 H23         4.5960   -2.9950   -4.0160 hc        1 MOL      0.065025
     52 H24         5.9520   -1.8880   -3.9520 hc        1 MOL      0.065025
     53 N5          6.4910   -2.4140   -0.0850 n         1 MOL     -0.149830
     54 C17         7.3520   -1.7500    0.9280 c3        1 MOL     -0.447737
     55 C18         7.5610   -0.1450    0.8240 c         1 MOL      0.709146
     56 O9          8.4050    0.3080    1.5270 o         1 MOL     -0.552507
     57 H25         5.6120   -2.7710    0.2840 hn        1 MOL      0.315113
     58 H26         8.3390   -2.1810    0.8010 h1        1 MOL      0.167536
     59 H27         6.8670   -1.9490    1.8830 h1        1 MOL      0.167536
     60 N6          6.8600    0.5540   -0.0790 n         1 MOL     -0.189707
     61 C19         7.0660    1.9620   -0.4140 c3        1 MOL     -0.092676
     62 C20         5.7710    2.8260   -0.3140 c         1 MOL      0.600642
     63 O10         4.6570    2.2770   -0.5330 o         1 MOL     -0.526432
     64 C21         7.6750    2.0160   -1.8560 c3        1 MOL     -0.155177
     65 C22         8.9660    1.3370   -2.0130 c         1 MOL      0.501267
     66 N7          9.0980    0.4060   -2.8930 n         1 MOL     -0.536964
     67 O11         9.9670    1.6520   -1.3440 o         1 MOL     -0.515076
     68 H28         6.0970    0.0880   -0.5590 hn        1 MOL      0.203174
     69 H29         7.7740    2.3740    0.3080 h1        1 MOL      0.046679
     70 H30         7.7660    3.0240   -2.2460 hc        1 MOL      0.033638
     71 H31         6.9490    1.4700   -2.4610 hc        1 MOL      0.033638
     72 H32         8.3020    0.3440   -3.5120 hn        1 MOL      0.299951
     73 H33         9.9700    0.1180   -3.3160 hn        1 MOL      0.299951
     74 N8          5.9640    4.1240   -0.0570 n         1 MOL     -0.387589
     75 C23         4.9900    5.1840   -0.1640 c3        1 MOL     -0.166908
     76 C24         3.7870    5.2470    0.8170 c         1 MOL      0.612276
     77 O12         4.0000    5.2010    2.0130 o         1 MOL     -0.495852
     78 H34         6.8960    4.5230   -0.0660 hn        1 MOL      0.338580
     79 H35         4.6910    4.9580   -1.1890 h1        1 MOL      0.087900
     80 H36         5.5040    6.1460   -0.1360 h1        1 MOL      0.087900
     81 N9          2.5810    5.1910    0.2250 n         1 MOL     -0.487799
     82 C25         1.3330    4.9130    0.9970 c3        1 MOL      0.000309
     83 C26         1.1840    3.3530    1.2530 c         1 MOL      0.721105
     84 O13         1.9140    2.4980    0.7600 o         1 MOL     -0.523008
     85 C27         0.1440    5.3180    0.1970 c3        1 MOL      0.086621
     86 C28         0.1900    6.7750   -0.2910 ca        1 MOL     -0.083589
     87 C29         0.2670    7.9130    0.5550 ca        1 MOL     -0.071919
     88 C30         0.1390    6.9170   -1.6950 ca        1 MOL     -0.071919
     89 C31         0.4430    9.2190   -0.0840 ca        1 MOL     -0.360316
     90 C32         0.2820    8.2310   -2.3110 ca        1 MOL     -0.360316
     91 C33         0.4420    9.2930   -1.4620 ca        1 MOL      0.500599
     92 O14         0.8200   10.4890   -1.9890 oh        1 MOL     -0.542623
     93 H37         2.5970    5.3390   -0.7730 hn        1 MOL      0.234033
     94 H38         1.2660    5.4790    1.9190 h1        1 MOL      0.078195
     95 H39        -0.7460    5.1060    0.7840 hc        1 MOL     -0.012209
     96 H40         0.0640    4.5820   -0.6020 hc        1 MOL     -0.012209
     97 H41         0.0360    7.7660    1.5970 ha        1 MOL      0.125384
     98 H42        -0.0870    6.1110   -2.3760 ha        1 MOL      0.125384
     99 H43         0.5790   10.1420    0.4610 ha        1 MOL      0.183299
    100 H44         0.2240    8.3950   -3.3790 ha        1 MOL      0.183299
    101 H45         1.5110   10.8120   -1.4180 ho        1 MOL      0.370514
    102 N10         0.3220    2.9830    2.2140 n         1 MOL     -0.708188
    103 C34        -0.0750    1.6310    2.6740 c3        1 MOL      0.036953
    104 C35        -0.2940    0.6650    1.4590 c         1 MOL      0.442461
    105 O15         0.5430    0.3970    0.6150 o         1 MOL     -0.483754
    106 C36         0.8870    1.0930    3.7540 c3        1 MOL      0.229169
    107 C37         0.3570   -0.2450    4.3390 c3        1 MOL     -0.067836
    108 C38         1.1680    2.1720    4.8540 c3        1 MOL     -0.166903
    109 C39        -1.0030   -0.2630    4.9460 c3        1 MOL     -0.352481
    110 H46        -0.3150    3.6950    2.5570 hn        1 MOL      0.340347
    111 H47        -1.0430    1.7600    3.1510 h1        1 MOL      0.076721
    112 H48         1.8610    0.9100    3.3100 hc        1 MOL      0.050325
    113 H49         1.1800   -0.5880    4.9800 hc        1 MOL      0.029096
    114 H50         0.3850   -0.9380    3.5020 hc        1 MOL      0.029096
    115 H51         0.2650    2.4350    5.4010 hc        1 MOL      0.045654
    116 H52         2.0260    1.9110    5.4770 hc        1 MOL      0.045654
    117 H53         1.5860    3.0950    4.4640 hc        1 MOL      0.045654
    118 H54        -0.8620    0.3840    5.8210 hc        1 MOL      0.093587
    119 H55        -1.8250    0.0700    4.3150 hc        1 MOL      0.093587
    120 H56        -1.2780   -1.2650    5.2760 hc        1 MOL      0.093587
    121 N11        -1.4800    0.0700    1.3990 n         1 MOL     -0.344341
    122 C40        -1.8710   -0.9950    0.5070 c3        1 MOL     -0.206182
    123 C41        -3.3600   -1.0590    0.0620 c         1 MOL      0.599435
    124 O16        -3.6360   -1.8700   -0.7690 o         1 MOL     -0.570264
    125 C42        -1.5180   -2.4100    1.0450 c3        1 MOL      0.534036
    126 O17        -1.9210   -2.4540    2.4020 oh        1 MOL     -0.659261
    127 H57        -2.1720    0.3760    2.0590 hn        1 MOL      0.282220
    128 H58        -1.2610   -0.9410   -0.3900 h1        1 MOL      0.125091
    129 H59        -0.4380   -2.5580    1.0360 h1        1 MOL     -0.092606
    130 H60        -1.9210   -3.2100    0.4200 h1        1 MOL     -0.092606
    131 H61        -1.3000   -3.0070    2.8910 ho        1 MOL      0.389079
    132 N12        -4.2520   -0.2910    0.5580 n         1 MOL     -0.354734
    133 C43        -5.6470   -0.2380    0.1610 c3        1 MOL     -0.028211
    134 C44        -5.7810    0.5190   -1.2470 c         1 MOL      0.684290
    135 O18        -4.9050    1.3760   -1.5020 o         1 MOL     -0.584503
    136 C45        -6.4120    0.5330    1.1800 c3        1 MOL     -0.260122
    137 H62        -3.9370    0.4500    1.1680 hn        1 MOL      0.214045
    138 H63        -5.9710   -1.2790    0.0780 h1        1 MOL      0.159538
    139 H64        -7.4770    0.5700    0.9870 hc        1 MOL      0.090143
    140 H65        -6.2070    0.0210    2.1300 hc        1 MOL      0.090143
    141 H66        -6.0920    1.5650    1.2640 hc        1 MOL      0.090143
    142 N13        -6.8040    0.1930   -2.0980 n         1 MOL     -0.772011
    143 C46        -7.8220   -0.8300   -1.8450 c3        1 MOL      0.472652
    144 C47        -9.1290   -0.5110   -2.5500 c         1 MOL      0.316782
    145 O19        -9.0570   -0.1880   -3.7190 o         1 MOL     -0.489519
    146 C48        -7.4000   -2.2310   -2.2580 c3        1 MOL     -0.141570
    147 H67        -6.8900    0.8120   -2.8860 hn        1 MOL      0.379497
    148 H68        -7.9530   -0.7630   -0.7640 h1        1 MOL     -0.109342
    149 H69        -7.0910   -2.2580   -3.3020 hc        1 MOL      0.040884
    150 H70        -6.6320   -2.5850   -1.5710 hc        1 MOL      0.040884
    151 H71        -8.2620   -2.8990   -2.2410 hc        1 MOL      0.040884
    152 N14       -10.2720   -0.4140   -1.7700 n         1 MOL     -0.287661
    153 C49       -10.5950   -0.6960   -0.3800 c3        1 MOL     -0.133178
    154 C50       -10.2130    0.4130    0.6480 c         1 MOL      0.575745
    155 O20        -9.9160    0.1310    1.8270 o         1 MOL     -0.550303
    156 C51       -12.0950   -0.9840   -0.2320 c3        1 MOL      0.021435
    157 C52       -13.0250    0.1340   -0.5980 c3        1 MOL     -0.076791
    158 C53       -14.4790   -0.1670   -0.2900 c         1 MOL      0.696761
    159 O21       -15.1830    0.8770   -0.1640 o         1 MOL     -0.655802
    160 O22       -14.9570   -1.3370   -0.1290 o         1 MOL     -0.655802
    161 H72       -11.0040    0.0050   -2.3340 hn        1 MOL      0.258701
    162 H73       -10.0950   -1.6170   -0.0690 h1        1 MOL      0.074600
    163 H74       -12.3900   -1.3180    0.7650 hc        1 MOL      0.020683
    164 H75       -12.3270   -1.7870   -0.9220 hc        1 MOL      0.020683
    165 H76       -12.9850    0.2830   -1.6730 hc        1 MOL     -0.009349
    166 H77       -12.6950    1.0550   -0.1070 hc        1 MOL     -0.009349
    167 N15       -10.1600    1.6960    0.2300 n         1 MOL     -0.217158
    168 C54        -9.7810    2.8170    1.0810 c3        1 MOL     -0.211856
    169 H78        -8.7890    2.6380    1.4970 h1        1 MOL      0.100325
    170 H79        -9.7670    3.7340    0.4910 h1        1 MOL      0.100325
    171 H80       -10.5010    2.9180    1.8920 h1        1 MOL      0.100325
    172 H81       -10.4790    1.9070   -0.7060 hn        1 MOL      0.206566
    173 Ca1         2.7050    0.6150   -0.8470 Ca        1 MOL      1.785197
    174 O23         2.2700    2.6520   -2.4050 oh        1 MOL     -0.927047
    175 H82         2.5390    3.5430   -2.6560 ho        1 MOL      0.448032
    176 H83         1.4420    2.5140   -2.8610 ho        1 MOL      0.448032
    177 O24         0.3380    0.4530   -2.3490 oh        1 MOL     -0.927047
    178 H84         0.2130    0.0370   -3.2000 ho        1 MOL      0.448032
    179 H85        -0.4830    0.9300   -2.1880 ho        1 MOL      0.448032
@<TRIPOS>BOND
     1    1    2 1   
     2    1    4 1   
     3    1    5 1   
     4    1    6 1   
     5    2    3 2   
     6    2    7 1   
     7    7    8 1   
     8    7   15 1   
     9    8    9 1   
    10    8   11 1   
    11    8   16 1   
    12    9   10 2   
    13    9   19 1   
    14   11   12 1   
    15   11   17 1   
    16   11   18 1   
    17   12   13 1   
    18   12   14 1   
    19   19   20 1   
    20   19   28 1   
    21   20   21 1   
    22   20   23 1   
    23   20   29 1   
    24   21   22 2   
    25   21   41 1   
    26   23   24 1   
    27   23   30 1   
    28   23   31 1   
    29   24   25 1   
    30   24   32 1   
    31   24   33 1   
    32   25   26 1   
    33   25   34 1   
    34   25   35 1   
    35   26   27 1   
    36   26   36 1   
    37   26   37 1   
    38   27   38 1   
    39   27   39 1   
    40   27   40 1   
    41   41   42 1   
    42   41   49 1   
    43   42   43 1   
    44   42   45 1   
    45   42   50 1   
    46   43   44 2   
    47   43   53 1   
    48   45   46 1   
    49   45   51 1   
    50   45   52 1   
    51   46   47 1   
    52   46   48 1   
    53   53   54 1   
    54   53   57 1   
    55   54   55 1   
    56   54   58 1   
    57   54   59 1   
    58   55   56 2   
    59   55   60 1   
    60   60   61 1   
    61   60   68 1   
    62   61   62 1   
    63   61   64 1   
    64   61   69 1   
    65   62   63 2   
    66   62   74 1   
    67   64   65 1   
    68   64   70 1   
    69   64   71 1   
    70   65   66 1   
    71   65   67 2   
    72   66   72 1   
    73   66   73 1   
    74   74   75 1   
    75   74   78 1   
    76   75   76 1   
    77   75   79 1   
    78   75   80 1   
    79   76   77 2   
    80   76   81 1   
    81   81   82 1   
    82   81   93 1   
    83   82   83 1   
    84   82   85 1   
    85   82   94 1   
    86   83   84 2   
    87   83  102 1   
    88   85   86 1   
    89   85   95 1   
    90   85   96 1   
    91   86   87 ar  
    92   86   88 ar  
    93   87   89 ar  
    94   87   97 1   
    95   88   90 ar  
    96   88   98 1   
    97   89   91 ar  
    98   89   99 1   
    99   90   91 ar  
   100   90  100 1   
   101   91   92 1   
   102   92  101 1   
   103  102  103 1   
   104  102  110 1   
   105  103  104 1   
   106  103  106 1   
   107  103  111 1   
   108  104  105 2   
   109  104  121 1   
   110  106  107 1   
   111  106  108 1   
   112  106  112 1   
   113  107  109 1   
   114  107  113 1   
   115  107  114 1   
   116  108  115 1   
   117  108  116 1   
   118  108  117 1   
   119  109  118 1   
   120  109  119 1   
   121  109  120 1   
   122  121  122 1   
   123  121  127 1   
   124  122  123 1   
   125  122  125 1   
   126  122  128 1   
   127  123  124 2   
   128  123  132 1   
   129  125  126 1   
   130  125  129 1   
   131  125  130 1   
   132  126  131 1   
   133  132  133 1   
   134  132  137 1   
   135  133  134 1   
   136  133  136 1   
   137  133  138 1   
   138  134  135 2   
   139  134  142 1   
   140  136  139 1   
   141  136  140 1   
   142  136  141 1   
   143  142  143 1   
   144  142  147 1   
   145  143  144 1   
   146  143  146 1   
   147  143  148 1   
   148  144  145 2   
   149  144  152 1   
   150  146  149 1   
   151  146  150 1   
   152  146  151 1   
   153  152  153 1   
   154  152  161 1   
   155  153  154 1   
   156  153  156 1   
   157  153  162 1   
   158  154  155 2   
   159  154  167 1   
   160  156  157 1   
   161  156  163 1   
   162  156  164 1   
   163  157  158 1   
   164  157  165 1   
   165  157  166 1   
   166  158  159 1   
   167  158  160 1   
   168  167  168 1   
   169  167  172 1   
   170  168  169 1   
   171  168  170 1   
   172  168  171 1   
   173  174  175 1   
   174  174  176 1   
   175  177  178 1   
   176  177  179 1   
@<TRIPOS>SUBSTRUCTURE
     1 MOL         1 TEMP              0 ****  ****    0 ROOT
