@<TRIPOS>MOLECULE
MOL
  182   178     1     0     0
SMALL
resp


@<TRIPOS>ATOM
      1 C1          1.3780   -4.1480    6.5710 c3        1 MOL     -0.354234
      2 C2          1.3000   -3.9890    5.0580 c         1 MOL      0.664591
      3 O1          0.2520   -4.2230    4.4140 o         1 MOL     -0.557885
      4 H1          0.8230   -5.0380    6.8710 hc        1 MOL      0.095516
      5 H2          2.4200   -4.2510    6.8730 hc        1 MOL      0.095516
      6 H3          0.9440   -3.2710    7.0520 hc        1 MOL      0.095516
      7 N1          2.4470   -3.6640    4.4100 n         1 MOL     -0.452133
      8 C3          2.5380   -3.1890    3.0680 c3        1 MOL      0.017868
      9 C4          2.7930   -4.4180    2.1030 c         1 MOL      0.576401
     10 O2          3.5920   -5.3240    2.4730 o         1 MOL     -0.561088
     11 C5          3.5250   -2.0420    2.9100 c3        1 MOL     -0.169220
     12 C6          3.5510   -1.3810    1.5680 c         1 MOL      0.544530
     13 O3          4.1080   -0.2590    1.4040 o         1 MOL     -0.636829
     14 O4          3.0380   -1.9640    0.5830 o         1 MOL     -0.636829
     15 H4          3.2830   -3.7640    4.9620 hn        1 MOL      0.283877
     16 H5          1.5590   -2.8270    2.7500 h1        1 MOL     -0.003486
     17 H6          4.5360   -2.4340    2.9940 hc        1 MOL      0.077504
     18 H7          3.4240   -1.3140    3.7210 hc        1 MOL      0.077504
     19 N2          2.1330   -4.4710    0.9320 n         1 MOL     -0.294144
     20 C7          2.1720   -5.6250   -0.0150 c3        1 MOL      0.049016
     21 C8          3.3540   -5.4570   -0.9970 c         1 MOL      0.401931
     22 O5          3.7570   -6.4270   -1.6690 o         1 MOL     -0.542078
     23 C9          0.7980   -5.7090   -0.6830 c3        1 MOL     -0.210537
     24 C10         0.3550   -4.4690   -1.5250 c3        1 MOL      0.229027
     25 C11        -1.1080   -4.5870   -2.0970 c3        1 MOL      0.050701
     26 C12        -0.9980   -5.7330   -3.1910 c3        1 MOL      0.145940
     27 N3         -2.1750   -5.9070   -4.0790 n4        1 MOL     -0.297234
     28 H8          1.5900   -3.6720    0.6430 hn        1 MOL      0.109567
     29 H9          2.3430   -6.5500    0.5530 h1        1 MOL      0.111133
     30 H10         0.0440   -5.8630    0.0880 hc        1 MOL      0.071680
     31 H11         0.8930   -6.5620   -1.3580 hc        1 MOL      0.071680
     32 H12         1.0100   -4.2230   -2.3680 hc        1 MOL     -0.038269
     33 H13         0.3190   -3.6000   -0.8660 hc        1 MOL     -0.038269
     34 H14        -1.2860   -3.6220   -2.5620 hc        1 MOL     -0.061540
     35 H15        -1.8170   -4.7460   -1.2950 hc        1 MOL     -0.061540
     36 H16        -0.8730   -6.7080   -2.7130 hx        1 MOL      0.035069
     37 H17        -0.1420   -5.5450   -3.8280 hx        1 MOL      0.035069
     38 H18        -3.0580   -5.9390   -3.6010 hn        1 MOL      0.254213
     39 H19        -2.1020   -5.0960   -4.6900 hn        1 MOL      0.254213
     40 H20        -2.1770   -6.7300   -4.6650 hn        1 MOL      0.254213
     41 N4          3.8810   -4.2540   -1.1320 n         1 MOL     -0.210568
     42 C13         5.0670   -3.9770   -1.9370 c3        1 MOL      0.058471
     43 C14         6.2360   -3.3620   -1.2990 c         1 MOL      0.523023
     44 O6          7.2740   -3.4050   -1.8940 o         1 MOL     -0.515272
     45 C15         4.6830   -2.9610   -3.0280 c3        1 MOL     -0.353398
     46 C16         3.9040   -1.7140   -2.6040 c         1 MOL      0.882918
     47 O7          2.6360   -1.7500   -2.7120 o         1 MOL     -0.784798
     48 O8          4.4670   -0.7310   -2.0880 o         1 MOL     -0.784798
     49 H21         3.5420   -3.5370   -0.5100 hn        1 MOL      0.153128
     50 H22         5.4170   -4.9340   -2.3350 h1        1 MOL      0.117826
     51 H23         4.1290   -3.4570   -3.8240 hc        1 MOL      0.093884
     52 H24         5.5250   -2.5090   -3.5450 hc        1 MOL      0.093884
     53 N5          6.0620   -2.8100   -0.0330 n         1 MOL     -0.349708
     54 C17         7.1530   -2.2140    0.7180 c3        1 MOL     -0.089573
     55 C18         7.6470   -0.8350    0.3310 c         1 MOL      0.432107
     56 O9          8.7040   -0.4100    0.7740 o         1 MOL     -0.541423
     57 H25         5.1370   -2.6570    0.3230 hn        1 MOL      0.188982
     58 H26         7.9720   -2.9160    0.5930 h1        1 MOL      0.107449
     59 H27         7.0450   -2.2020    1.8060 h1        1 MOL      0.107449
     60 N6          6.8980   -0.1090   -0.5190 n         1 MOL     -0.077974
     61 C19         7.2060    1.2730   -0.9100 c3        1 MOL     -0.029282
     62 C20         5.9400    2.2050   -0.8040 c         1 MOL      0.545668
     63 O10         4.8030    1.7590   -0.6330 o         1 MOL     -0.601926
     64 C21         7.8130    1.1480   -2.2820 c3        1 MOL     -0.277048
     65 C22         6.9830    1.6150   -3.4780 c         1 MOL      0.655298
     66 N7          5.9470    0.9540   -3.8970 n         1 MOL     -0.790815
     67 O11         7.3350    2.6690   -4.0200 o         1 MOL     -0.593995
     68 H28         6.1920   -0.5990   -1.0420 hn        1 MOL      0.130271
     69 H29         7.9220    1.6880   -0.1960 h1        1 MOL      0.089130
     70 H30         8.2390    0.1560   -2.4280 hc        1 MOL      0.110300
     71 H31         8.7160    1.7400   -2.3960 hc        1 MOL      0.110300
     72 H32         5.5310    0.3170   -3.2250 hn        1 MOL      0.362154
     73 H33         5.5060    1.1060   -4.7910 hn        1 MOL      0.362154
     74 N8          6.1900    3.5240   -0.7640 n         1 MOL     -0.341139
     75 C23         5.2360    4.6060   -0.8580 c3        1 MOL     -0.072603
     76 C24         4.3290    4.7350    0.3520 c         1 MOL      0.603864
     77 O12         4.7910    4.6130    1.5060 o         1 MOL     -0.507566
     78 H34         7.1750    3.7490   -0.6950 hn        1 MOL      0.281236
     79 H35         4.6790    4.4240   -1.7780 h1        1 MOL      0.073689
     80 H36         5.6950    5.5890   -0.9650 h1        1 MOL      0.073689
     81 N9          3.0320    4.7600    0.0780 n         1 MOL     -0.616752
     82 C25         1.9400    4.6870    1.0600 c3        1 MOL      0.153311
     83 C26         1.7210    3.2200    1.5700 c         1 MOL      0.563795
     84 O13         2.3940    2.3310    1.0110 o         1 MOL     -0.464569
     85 C27         0.6790    5.2310    0.5530 c3        1 MOL     -0.176763
     86 C28         0.7910    6.6770    0.0370 ca        1 MOL      0.082687
     87 C29         1.0660    7.7080    0.9940 ca        1 MOL     -0.149491
     88 C30         0.4380    7.0650   -1.2960 ca        1 MOL     -0.149491
     89 C31         0.8710    9.0750    0.7110 ca        1 MOL     -0.257582
     90 C32         0.1890    8.4570   -1.4880 ca        1 MOL     -0.257582
     91 C33         0.4480    9.4540   -0.5590 ca        1 MOL      0.359244
     92 O14         0.2450   10.7880   -0.9390 oh        1 MOL     -0.522872
     93 H37         2.8580    4.9430   -0.8980 hn        1 MOL      0.289478
     94 H38         2.2950    5.2050    1.9430 h1        1 MOL      0.072008
     95 H39        -0.1160    5.0700    1.2790 hc        1 MOL      0.049987
     96 H40         0.4200    4.5770   -0.2730 hc        1 MOL      0.049987
     97 H41         1.4300    7.3800    1.9580 ha        1 MOL      0.127387
     98 H42         0.2450    6.3320   -2.0720 ha        1 MOL      0.127387
     99 H43         1.1150    9.8370    1.4420 ha        1 MOL      0.155292
    100 H44        -0.0380    8.8440   -2.4640 ha        1 MOL      0.155292
    101 H45         0.2480   11.4130   -0.2010 ho        1 MOL      0.395683
    102 N10         0.9490    2.9350    2.5810 n         1 MOL     -0.557456
    103 C34         0.4380    1.6250    3.0380 c3        1 MOL     -0.045071
    104 C35        -0.1190    0.6980    1.9130 c         1 MOL      0.444358
    105 O15         0.5710    0.0320    1.1380 o         1 MOL     -0.459115
    106 C36         1.5170    0.9340    4.0030 c3        1 MOL      0.535315
    107 C37         0.9680   -0.3240    4.6850 c3        1 MOL     -0.123493
    108 C38         2.1910    1.8670    5.0790 c3        1 MOL     -0.301023
    109 C39        -0.1330   -0.0630    5.7060 c3        1 MOL     -0.219430
    110 H46         0.6360    3.7180    3.1300 hn        1 MOL      0.312234
    111 H47        -0.3810    1.8430    3.7260 h1        1 MOL      0.077969
    112 H48         2.3290    0.5520    3.3890 hc        1 MOL     -0.113962
    113 H49         1.8080   -0.8330    5.1570 hc        1 MOL      0.063580
    114 H50         0.6130   -0.9940    3.9090 hc        1 MOL      0.063580
    115 H51         2.6110    2.7340    4.5660 hc        1 MOL      0.054533
    116 H52         1.3740    2.1740    5.7370 hc        1 MOL      0.054533
    117 H53         2.9280    1.2970    5.6580 hc        1 MOL      0.054533
    118 H54        -1.0130    0.4650    5.3200 hc        1 MOL      0.053291
    119 H55        -0.5230   -0.9820    6.1490 hc        1 MOL      0.053291
    120 H56         0.2050    0.5410    6.5430 hc        1 MOL      0.053291
    121 N11        -1.4670    0.5430    1.8750 n         1 MOL     -0.427345
    122 C40        -2.0940   -0.1100    0.6770 c3        1 MOL     -0.048937
    123 C41        -3.5790    0.4200    0.5160 c         1 MOL      0.492748
    124 O16        -4.3390    0.5940    1.4320 o         1 MOL     -0.467600
    125 C42        -2.2320   -1.6730    0.9030 c3        1 MOL      0.170661
    126 O17        -1.0580   -2.3940    0.8090 oh        1 MOL     -0.437287
    127 H57        -2.0520    0.9870    2.5670 hn        1 MOL      0.269551
    128 H58        -1.5710    0.2880   -0.1900 h1        1 MOL      0.173096
    129 H59        -2.8090   -1.9640    0.0290 h1        1 MOL      0.039021
    130 H60        -2.6720   -1.8350    1.8840 h1        1 MOL      0.039021
    131 H61        -0.6080   -1.9850    0.0570 ho        1 MOL      0.395107
    132 N12        -4.0170    0.4110   -0.7320 n         1 MOL     -0.571379
    133 C43        -5.4480    0.2350   -1.0100 c3        1 MOL      0.413732
    134 C44        -5.6230   -0.5120   -2.3650 c         1 MOL      0.405927
    135 O18        -4.7750   -0.4710   -3.1880 o         1 MOL     -0.520298
    136 C45        -6.1370    1.6150   -1.1230 c3        1 MOL     -0.508830
    137 H62        -3.3450    0.1200   -1.4250 hn        1 MOL      0.226981
    138 H63        -5.8510   -0.3290   -0.1650 h1        1 MOL      0.019804
    139 H64        -5.9460    2.0870   -2.0840 hc        1 MOL      0.150644
    140 H65        -7.1880    1.3840   -1.0010 hc        1 MOL      0.150644
    141 H66        -5.7790    2.2150   -0.2770 hc        1 MOL      0.150644
    142 N13        -6.7470   -1.1500   -2.7420 n         1 MOL     -0.440754
    143 C46        -7.9610   -1.3330   -1.9660 c3        1 MOL      0.167586
    144 C47        -8.9810   -0.2460   -2.2810 c         1 MOL      0.611332
    145 O19        -8.8280    0.3850   -3.3370 o         1 MOL     -0.557881
    146 C48        -8.5800   -2.7300   -2.2440 c3        1 MOL     -0.359867
    147 H67        -6.5910   -1.7840   -3.5190 hn        1 MOL      0.294800
    148 H68        -7.7500   -1.2670   -0.8990 h1        1 MOL      0.005674
    149 H69        -8.8430   -2.7890   -3.3020 hc        1 MOL      0.110237
    150 H70        -7.9010   -3.5440   -2.0220 hc        1 MOL      0.110237
    151 H71        -9.4810   -2.8770   -1.6430 hc        1 MOL      0.110237
    152 N14        -9.9860    0.1430   -1.4500 n         1 MOL     -0.599780
    153 C49       -10.1800   -0.1730   -0.0590 c3        1 MOL      0.045245
    154 C50        -9.1850    0.5690    0.8530 c         1 MOL      0.545231
    155 O20        -8.2690   -0.0600    1.3340 o         1 MOL     -0.540982
    156 C51       -11.5750    0.1600    0.5220 c3        1 MOL     -0.068240
    157 C52       -12.6000   -0.9710    0.0840 c3        1 MOL     -0.059139
    158 C53       -14.0010   -0.6450    0.3580 c         1 MOL      0.642607
    159 O21       -14.6830   -1.2870    1.2140 o         1 MOL     -0.650337
    160 O22       -14.5220    0.2050   -0.4320 o         1 MOL     -0.650337
    161 H72       -10.6000    0.8510   -1.8360 hn        1 MOL      0.345988
    162 H73        -9.8990   -1.2290    0.0370 h1        1 MOL      0.056405
    163 H74       -11.8870    1.1380    0.1540 hc        1 MOL      0.034274
    164 H75       -11.5480    0.2190    1.6080 hc        1 MOL      0.034274
    165 H76       -12.3840   -1.8580    0.6680 hc        1 MOL      0.017244
    166 H77       -12.5530   -1.1780   -0.9810 hc        1 MOL      0.017244
    167 N15        -9.2670    1.8950    0.8940 n         1 MOL     -0.334557
    168 C54        -8.7030    2.8340    1.9390 c3        1 MOL     -0.243751
    169 H78        -8.3510    3.7450    1.4560 h1        1 MOL      0.120786
    170 H79        -9.4790    3.0830    2.6620 h1        1 MOL      0.120786
    171 H80        -7.8710    2.3500    2.4520 h1        1 MOL      0.120786
    172 H81        -9.8570    2.3410    0.2160 hn        1 MOL      0.262122
    173 Ca1         2.5690    0.3930   -0.7770 Ca        1 MOL      1.774956
    174 O23         2.5530    1.4270   -3.4220 oh        1 MOL     -0.855788
    175 H82         2.4300    2.3450   -3.6720 ho        1 MOL      0.416616
    176 H83         3.1370    1.0740   -4.0900 ho        1 MOL      0.416616
    177 O24         0.2510   -1.0190   -1.5830 oh        1 MOL     -0.855788
    178 H84        -0.6100   -1.1430   -1.9920 ho        1 MOL      0.416616
    179 H85         0.8550   -1.5120   -2.1370 ho        1 MOL      0.416616
    180 O25         0.7460    2.2650   -1.5990 oh        1 MOL     -0.855788
    181 H86        -0.1590    2.5710   -1.6450 ho        1 MOL      0.416616
    182 H87         1.2180    2.8320   -2.2030 ho        1 MOL      0.416616
@<TRIPOS>BOND
     1    1    2 1   
     2    1    4 1   
     3    1    5 1   
     4    1    6 1   
     5    2    3 2   
     6    2    7 1   
     7    7    8 1   
     8    7   15 1   
     9    8    9 1   
    10    8   11 1   
    11    8   16 1   
    12    9   10 2   
    13    9   19 1   
    14   11   12 1   
    15   11   17 1   
    16   11   18 1   
    17   12   13 1   
    18   12   14 1   
    19   19   20 1   
    20   19   28 1   
    21   20   21 1   
    22   20   23 1   
    23   20   29 1   
    24   21   22 2   
    25   21   41 1   
    26   23   24 1   
    27   23   30 1   
    28   23   31 1   
    29   24   25 1   
    30   24   32 1   
    31   24   33 1   
    32   25   26 1   
    33   25   34 1   
    34   25   35 1   
    35   26   27 1   
    36   26   36 1   
    37   26   37 1   
    38   27   38 1   
    39   27   39 1   
    40   27   40 1   
    41   41   42 1   
    42   41   49 1   
    43   42   43 1   
    44   42   45 1   
    45   42   50 1   
    46   43   44 2   
    47   43   53 1   
    48   45   46 1   
    49   45   51 1   
    50   45   52 1   
    51   46   47 1   
    52   46   48 1   
    53   53   54 1   
    54   53   57 1   
    55   54   55 1   
    56   54   58 1   
    57   54   59 1   
    58   55   56 2   
    59   55   60 1   
    60   60   61 1   
    61   60   68 1   
    62   61   62 1   
    63   61   64 1   
    64   61   69 1   
    65   62   63 2   
    66   62   74 1   
    67   64   65 1   
    68   64   70 1   
    69   64   71 1   
    70   65   66 1   
    71   65   67 2   
    72   66   72 1   
    73   66   73 1   
    74   74   75 1   
    75   74   78 1   
    76   75   76 1   
    77   75   79 1   
    78   75   80 1   
    79   76   77 2   
    80   76   81 1   
    81   81   82 1   
    82   81   93 1   
    83   82   83 1   
    84   82   85 1   
    85   82   94 1   
    86   83   84 2   
    87   83  102 1   
    88   85   86 1   
    89   85   95 1   
    90   85   96 1   
    91   86   87 ar  
    92   86   88 ar  
    93   87   89 ar  
    94   87   97 1   
    95   88   90 ar  
    96   88   98 1   
    97   89   91 ar  
    98   89   99 1   
    99   90   91 ar  
   100   90  100 1   
   101   91   92 1   
   102   92  101 1   
   103  102  103 1   
   104  102  110 1   
   105  103  104 1   
   106  103  106 1   
   107  103  111 1   
   108  104  105 2   
   109  104  121 1   
   110  106  107 1   
   111  106  108 1   
   112  106  112 1   
   113  107  109 1   
   114  107  113 1   
   115  107  114 1   
   116  108  115 1   
   117  108  116 1   
   118  108  117 1   
   119  109  118 1   
   120  109  119 1   
   121  109  120 1   
   122  121  122 1   
   123  121  127 1   
   124  122  123 1   
   125  122  125 1   
   126  122  128 1   
   127  123  124 2   
   128  123  132 1   
   129  125  126 1   
   130  125  129 1   
   131  125  130 1   
   132  126  131 1   
   133  132  133 1   
   134  132  137 1   
   135  133  134 1   
   136  133  136 1   
   137  133  138 1   
   138  134  135 2   
   139  134  142 1   
   140  136  139 1   
   141  136  140 1   
   142  136  141 1   
   143  142  143 1   
   144  142  147 1   
   145  143  144 1   
   146  143  146 1   
   147  143  148 1   
   148  144  145 2   
   149  144  152 1   
   150  146  149 1   
   151  146  150 1   
   152  146  151 1   
   153  152  153 1   
   154  152  161 1   
   155  153  154 1   
   156  153  156 1   
   157  153  162 1   
   158  154  155 2   
   159  154  167 1   
   160  156  157 1   
   161  156  163 1   
   162  156  164 1   
   163  157  158 1   
   164  157  165 1   
   165  157  166 1   
   166  158  159 1   
   167  158  160 1   
   168  167  168 1   
   169  167  172 1   
   170  168  169 1   
   171  168  170 1   
   172  168  171 1   
   173  174  175 1   
   174  174  176 1   
   175  177  178 1   
   176  177  179 1   
   177  180  181 1   
   178  180  182 1   
@<TRIPOS>SUBSTRUCTURE
     1 MOL         1 TEMP              0 ****  ****    0 ROOT
