@<TRIPOS>MOLECULE
MOL
  189   185     1     0     0
SMALL
resp


@<TRIPOS>ATOM
      1 C1         -4.4950   -4.1270   -3.7110 c3        1 MOL     -0.371942
      2 C2         -5.2330   -3.3710   -2.6090 c         1 MOL      0.794642
      3 O1         -4.7000   -3.2040   -1.5430 o         1 MOL     -0.641343
      4 H1         -5.1750   -4.8350   -4.1850 hc        1 MOL      0.089284
      5 H2         -4.1310   -3.4200   -4.4560 hc        1 MOL      0.089284
      6 H3         -3.6520   -4.6680   -3.2800 hc        1 MOL      0.089284
      7 N1         -6.4720   -2.9880   -2.7760 n         1 MOL     -0.643353
      8 C3         -7.2180   -2.0460   -1.8910 c3        1 MOL      0.083429
      9 C4         -6.3640   -0.8250   -1.4840 c         1 MOL      0.430639
     10 O2         -5.8730   -0.6630   -0.3530 o         1 MOL     -0.420612
     11 C5         -8.1510   -2.8210   -0.9720 c3        1 MOL     -0.091524
     12 C6         -7.5620   -3.9830   -0.2670 c         1 MOL      0.733146
     13 O3         -6.5940   -3.8520    0.5020 o         1 MOL     -0.736875
     14 O4         -8.2460   -5.0760   -0.3550 o         1 MOL     -0.736875
     15 H4         -6.9260   -3.2320   -3.6450 hn        1 MOL      0.325692
     16 H5         -7.9020   -1.7010   -2.6650 h1        1 MOL      0.046160
     17 H6         -9.0030   -3.2610   -1.4890 hc        1 MOL      0.027807
     18 H7         -8.6230   -2.0860   -0.3060 hc        1 MOL      0.027807
     19 N2         -6.0050   -0.0960   -2.5250 n         1 MOL     -0.527391
     20 C7         -5.1890    1.0930   -2.7160 c3        1 MOL      0.043346
     21 C8         -5.5990    2.4220   -1.9770 c         1 MOL      0.410163
     22 O5         -5.5590    3.4670   -2.6260 o         1 MOL     -0.519351
     23 C9         -3.6400    0.8070   -2.4200 c3        1 MOL      0.585527
     24 C10        -2.7190    2.0820   -2.6440 c3        1 MOL     -0.342484
     25 C11        -3.1180   -0.3600   -3.2880 c3        1 MOL     -0.059801
     26 C12        -2.7340    2.6390   -4.1060 c3        1 MOL     -0.308859
     27 H8         -6.4470   -0.3570   -3.4030 hn        1 MOL      0.287899
     28 H9         -5.3510    1.4210   -3.7430 h1        1 MOL      0.071271
     29 H10        -3.4660    0.4540   -1.4060 hc        1 MOL     -0.342896
     30 H11        -1.6710    1.8320   -2.4830 hc        1 MOL      0.190282
     31 H12        -2.9370    2.8890   -1.9410 hc        1 MOL      0.190282
     32 H13        -2.0630   -0.5640   -3.1470 hc        1 MOL     -0.033347
     33 H14        -3.6840   -1.2300   -2.9480 hc        1 MOL     -0.033347
     34 H15        -3.6050   -0.2670   -4.2580 hc        1 MOL     -0.033347
     35 H16        -2.2080    1.9770   -4.7910 hc        1 MOL      0.059889
     36 H17        -3.7700    2.6790   -4.4270 hc        1 MOL      0.059889
     37 H18        -2.2160    3.5970   -4.1360 hc        1 MOL      0.059889
     38 N3         -6.0630    2.3110   -0.7230 n         1 MOL     -0.201851
     39 C13        -6.5080    3.4060    0.0820 c3        1 MOL     -0.059507
     40 C14        -5.6010    4.6400    0.0970 c         1 MOL      0.573085
     41 O6         -5.8740    5.7620   -0.3940 o         1 MOL     -0.589707
     42 C15        -7.1070    3.0370    1.4700 c3        1 MOL     -0.159794
     43 C16        -8.1340    1.8550    1.3360 c         1 MOL      0.665591
     44 O7         -8.8610    1.8380    0.2970 o         1 MOL     -0.686502
     45 O8         -8.1690    0.9160    2.1920 o         1 MOL     -0.686502
     46 H19        -5.9590    1.4140   -0.2560 hn        1 MOL      0.283812
     47 H20        -7.3500    3.8720   -0.4190 h1        1 MOL      0.057707
     48 H21        -7.6980    3.8890    1.8140 hc        1 MOL      0.033416
     49 H22        -6.3330    2.9460    2.2330 hc        1 MOL      0.033416
     50 N4         -4.4460    4.6120    0.7320 n         1 MOL     -0.536044
     51 C17        -3.7960    3.4600    1.4070 c3        1 MOL      0.091305
     52 C18        -2.6500    3.8210    2.2890 c         1 MOL      0.474294
     53 O9         -2.1580    4.9640    2.3140 o         1 MOL     -0.557448
     54 H23        -3.9410    5.4790    0.6980 hn        1 MOL      0.313996
     55 H24        -3.4470    2.8050    0.6150 h1        1 MOL      0.093035
     56 H25        -4.4420    2.8520    2.0500 h1        1 MOL      0.093035
     57 N5         -1.9600    2.9230    2.9890 n         1 MOL     -0.525080
     58 C19        -2.3330    1.4590    3.1740 c3        1 MOL      0.512710
     59 C20        -2.5160    0.6280    1.8800 c         1 MOL      0.121743
     60 O10        -3.6230    0.1250    1.6620 o         1 MOL     -0.631268
     61 C21        -3.4370    1.4040    4.1900 c3        1 MOL     -0.297039
     62 C22        -3.9420    0.0190    4.5220 c         1 MOL      0.764825
     63 O11        -3.0920   -0.8830    4.6490 o         1 MOL     -0.703306
     64 O12        -5.1660   -0.2500    4.5470 o         1 MOL     -0.703306
     65 H26        -1.2030    3.2550    3.5610 hn        1 MOL      0.264958
     66 H27        -1.6090    0.9210    3.7850 h1        1 MOL     -0.024617
     67 H28        -4.2390    2.0520    3.8450 hc        1 MOL      0.044096
     68 H29        -3.0450    1.9070    5.0760 hc        1 MOL      0.044096
     69 N6         -1.5740    0.5180    0.9690 n         1 MOL     -0.023725
     70 C23        -0.2330    1.0580    1.0340 c3        1 MOL     -0.208575
     71 C24         0.0330    2.4650    0.2840 c         1 MOL      0.507515
     72 O13        -0.8320    2.9190   -0.4290 o         1 MOL     -0.484302
     73 H30        -1.8570   -0.0010    0.1530 hn        1 MOL      0.259679
     74 H31         0.3940    0.3130    0.5420 h1        1 MOL      0.045418
     75 H32         0.0240    1.1680    2.0940 h1        1 MOL      0.045418
     76 N7          1.2320    2.9670    0.4780 n         1 MOL     -0.246265
     77 C25         1.5920    4.2360   -0.0650 c3        1 MOL     -0.143065
     78 C26         2.4120    4.1880   -1.3620 c         1 MOL      0.434329
     79 O14         2.5060    5.1170   -2.1670 o         1 MOL     -0.460501
     80 C27         2.2320    5.0650    1.0650 c3        1 MOL      0.010072
     81 C28         1.2620    5.7340    2.0760 c3        1 MOL     -0.193784
     82 C29         0.6810    7.0780    1.5840 c         1 MOL      0.795417
     83 N8          0.3610    7.9650    2.4570 n         1 MOL     -0.868757
     84 O15         0.4610    7.3020    0.4440 o         1 MOL     -0.567965
     85 H33         1.8050    2.6190    1.2390 hn        1 MOL      0.235901
     86 H34         0.6390    4.7160   -0.3180 h1        1 MOL      0.173514
     87 H35         2.8160    5.8720    0.6110 hc        1 MOL      0.009269
     88 H36         2.9030    4.4430    1.6530 hc        1 MOL      0.009269
     89 H37         1.8680    5.9540    2.9530 hc        1 MOL      0.039758
     90 H38         0.4820    4.9930    2.2260 hc        1 MOL      0.039758
     91 H39         0.3460    7.7370    3.4380 hn        1 MOL      0.374228
     92 H40         0.0240    8.8400    2.0940 hn        1 MOL      0.374228
     93 N9          3.0470    2.9720   -1.5980 n         1 MOL     -0.393373
     94 C30         3.6020    2.5940   -2.9020 c3        1 MOL     -0.083997
     95 C31         5.0380    1.9900   -3.0060 c         1 MOL      0.427080
     96 O16         5.4990    1.6910   -4.0950 o         1 MOL     -0.539896
     97 C32         2.6480    1.6280   -3.6250 c3        1 MOL      0.188453
     98 C33         1.2030    2.1650   -3.6720 c3        1 MOL     -0.195319
     99 C34         2.6430    0.2520   -2.9280 c3        1 MOL     -0.195319
    100 H41         2.9960    2.3750   -0.7840 hn        1 MOL      0.249954
    101 H42         3.5630    3.4840   -3.5330 h1        1 MOL      0.123277
    102 H43         2.9320    1.3940   -4.6550 hc        1 MOL      0.010667
    103 H44         1.2720    3.2040   -3.9720 hc        1 MOL      0.046221
    104 H45         0.6250    1.4620   -4.2660 hc        1 MOL      0.046221
    105 H46         0.8010    2.1250   -2.6650 hc        1 MOL      0.046221
    106 H47         3.5650   -0.2870   -3.1390 hc        1 MOL      0.046221
    107 H48         2.5540    0.4150   -1.8590 hc        1 MOL      0.046221
    108 H49         1.8190   -0.3490   -3.2930 hc        1 MOL      0.046221
    109 N10         5.7590    1.7980   -1.8980 n         1 MOL     -0.281977
    110 C35         7.1910    1.3190   -1.8770 c3        1 MOL      0.067915
    111 C36         7.2410   -0.1230   -1.2160 c         1 MOL      0.505336
    112 O17         8.2360   -0.8620   -1.2980 o         1 MOL     -0.549327
    113 C37         8.0180    2.2880   -0.9920 c3        1 MOL     -0.586693
    114 C38         8.1920    3.6700   -1.6290 c         1 MOL      0.747226
    115 N11         8.3140    3.8190   -2.9280 n         1 MOL     -0.774606
    116 O18         8.3820    4.7020   -1.0350 o         1 MOL     -0.567726
    117 H50         5.2220    2.0140   -1.0690 hn        1 MOL      0.220568
    118 H51         7.6700    1.2560   -2.8490 h1        1 MOL      0.086775
    119 H52         9.0010    1.8390   -0.8120 hc        1 MOL      0.205894
    120 H53         7.4800    2.3520   -0.0520 hc        1 MOL      0.205894
    121 H54         8.0630    3.0760   -3.5580 hn        1 MOL      0.357641
    122 H55         8.3380    4.7250   -3.3680 hn        1 MOL      0.357641
    123 N12         6.2390   -0.4860   -0.4140 n         1 MOL     -0.459897
    124 C39         6.2880   -1.7040    0.4020 c3        1 MOL      0.341955
    125 C40         4.8820   -2.3270    0.3720 c         1 MOL      0.251405
    126 O19         3.8630   -1.7130   -0.0130 o         1 MOL     -0.438630
    127 C41         6.6750   -1.2430    1.8460 c3        1 MOL     -0.000834
    128 C42         8.0840   -0.8390    1.9840 ca        1 MOL     -0.104936
    129 C43         9.1590   -1.7640    2.0060 ca        1 MOL     -0.008027
    130 C44         8.4370    0.5400    1.9920 ca        1 MOL     -0.008027
    131 C45        10.4850   -1.3470    2.2090 ca        1 MOL     -0.386789
    132 C46         9.7390    1.0060    2.1660 ca        1 MOL     -0.386789
    133 C47        10.8040    0.0680    2.2490 ca        1 MOL      0.433462
    134 O20        12.0370    0.4820    2.2120 oh        1 MOL     -0.504630
    135 H56         5.3780    0.0260   -0.4570 hn        1 MOL      0.271778
    136 H57         7.0360   -2.3910    0.0330 h1        1 MOL      0.030024
    137 H58         6.5750   -2.0610    2.5510 hc        1 MOL      0.013780
    138 H59         5.9900   -0.4410    2.1190 hc        1 MOL      0.013780
    139 H60         8.9510   -2.8230    2.0230 ha        1 MOL      0.096662
    140 H61         7.6470    1.2390    1.7660 ha        1 MOL      0.096662
    141 H62        11.2640   -2.0900    2.2420 ha        1 MOL      0.159391
    142 H63         9.9250    2.0510    1.9590 ha        1 MOL      0.159391
    143 H64        12.7030   -0.1730    2.4410 ho        1 MOL      0.379314
    144 N13         4.8410   -3.5550    0.8760 n         1 MOL     -0.497214
    145 C48         3.5920   -4.2870    1.2410 c3        1 MOL      0.303173
    146 C49         2.6420   -4.7220    0.0670 c         1 MOL      0.278893
    147 O21         2.2190   -5.8740    0.0930 o         1 MOL     -0.514417
    148 C50         2.8150   -3.5750    2.3760 c3        1 MOL      0.081640
    149 C51         3.5830   -3.3030    3.6900 c3        1 MOL     -0.147665
    150 C52         3.7200   -4.5450    4.6070 c         1 MOL      0.638652
    151 O22         4.4090   -5.4970    4.2520 o         1 MOL     -0.706741
    152 O23         2.9050   -4.6650    5.5620 o         1 MOL     -0.706741
    153 H65         5.7180   -3.8850    1.2580 hn        1 MOL      0.289374
    154 H66         4.0310   -5.1950    1.6420 h1        1 MOL      0.013629
    155 H67         1.9090   -4.1400    2.6010 hc        1 MOL      0.029609
    156 H68         2.4730   -2.6230    1.9750 hc        1 MOL      0.029609
    157 H69         3.1580   -2.4580    4.2230 hc        1 MOL     -0.017330
    158 H70         4.6270   -3.0870    3.4790 hc        1 MOL     -0.017330
    159 N14         2.3480   -3.8850   -0.9090 n         1 MOL     -0.231239
    160 C53         1.3230   -4.3650   -1.8670 c3        1 MOL     -0.214786
    161 C54         2.0170   -5.1820   -2.9910 c         1 MOL      0.566667
    162 O24         1.4160   -5.4120   -3.9760 o         1 MOL     -0.545887
    163 C55         0.5200   -3.1130   -2.3960 c3        1 MOL     -0.353808
    164 C56         0.0220   -2.2170   -1.2990 c3        1 MOL      0.824260
    165 C57        -1.2220   -2.6830   -0.5400 c         1 MOL      0.338710
    166 O25        -2.1640   -1.9240   -0.2540 o         1 MOL     -0.581455
    167 O26        -1.1470   -3.8520   -0.0390 o         1 MOL     -0.581455
    168 H71         2.7370   -2.9560   -0.9300 hn        1 MOL      0.198368
    169 H72         0.6780   -5.0580   -1.3390 h1        1 MOL      0.197696
    170 H73        -0.4220   -3.4470   -2.8310 hc        1 MOL      0.098689
    171 H74         1.0630   -2.5460   -3.1510 hc        1 MOL      0.098689
    172 H75        -0.2520   -1.2460   -1.7020 hc        1 MOL     -0.241651
    173 H76         0.7670   -2.0680   -0.5190 hc        1 MOL     -0.241651
    174 N15         3.3460   -5.3890   -2.9220 n         1 MOL     -0.258488
    175 C58         4.0960   -6.2840   -3.7470 c3        1 MOL     -0.135025
    176 H77         3.4130   -6.8650   -4.3650 h1        1 MOL      0.064564
    177 H78         4.7680   -5.7120   -4.3870 h1        1 MOL      0.064564
    178 H79         4.6790   -6.9570   -3.1180 h1        1 MOL      0.064564
    179 H80         3.8640   -4.8730   -2.2240 hn        1 MOL      0.220497
    180 Ca1        -4.4130   -2.4220    0.9300 Ca        1 MOL      1.835656
    181 O27        -6.4590   -1.2660    2.3880 oh        1 MOL     -0.917972
    182 H81        -6.0080   -0.9570    3.1780 ho        1 MOL      0.430765
    183 H82        -7.0990   -0.5740    2.2010 ho        1 MOL      0.430765
    184 O28        -3.1030   -2.7450    3.0310 oh        1 MOL     -0.917972
    185 H83        -3.2040   -2.1590    3.7840 ho        1 MOL      0.430765
    186 H84        -2.3640   -3.3040    3.2660 ho        1 MOL      0.430765
    187 O29        -4.0480   -5.0560    1.6100 oh        1 MOL     -0.917972
    188 H85        -3.4150   -5.7340    1.3720 ho        1 MOL      0.430765
    189 H86        -4.7120   -5.5170    2.1280 ho        1 MOL      0.430765
@<TRIPOS>BOND
     1    1    2 1   
     2    1    4 1   
     3    1    5 1   
     4    1    6 1   
     5    2    3 2   
     6    2    7 1   
     7    7    8 1   
     8    7   15 1   
     9    8    9 1   
    10    8   11 1   
    11    8   16 1   
    12    9   10 2   
    13    9   19 1   
    14   11   12 1   
    15   11   17 1   
    16   11   18 1   
    17   12   13 1   
    18   12   14 1   
    19   19   20 1   
    20   19   27 1   
    21   20   21 1   
    22   20   23 1   
    23   20   28 1   
    24   21   22 2   
    25   21   38 1   
    26   23   24 1   
    27   23   25 1   
    28   23   29 1   
    29   24   26 1   
    30   24   30 1   
    31   24   31 1   
    32   25   32 1   
    33   25   33 1   
    34   25   34 1   
    35   26   35 1   
    36   26   36 1   
    37   26   37 1   
    38   38   39 1   
    39   38   46 1   
    40   39   40 1   
    41   39   42 1   
    42   39   47 1   
    43   40   41 2   
    44   40   50 1   
    45   42   43 1   
    46   42   48 1   
    47   42   49 1   
    48   43   44 1   
    49   43   45 1   
    50   50   51 1   
    51   50   54 1   
    52   51   52 1   
    53   51   55 1   
    54   51   56 1   
    55   52   53 2   
    56   52   57 1   
    57   57   58 1   
    58   57   65 1   
    59   58   59 1   
    60   58   61 1   
    61   58   66 1   
    62   59   60 2   
    63   59   69 1   
    64   61   62 1   
    65   61   67 1   
    66   61   68 1   
    67   62   63 1   
    68   62   64 1   
    69   69   70 1   
    70   69   73 1   
    71   70   71 1   
    72   70   74 1   
    73   70   75 1   
    74   71   72 2   
    75   71   76 1   
    76   76   77 1   
    77   76   85 1   
    78   77   78 1   
    79   77   80 1   
    80   77   86 1   
    81   78   79 2   
    82   78   93 1   
    83   80   81 1   
    84   80   87 1   
    85   80   88 1   
    86   81   82 1   
    87   81   89 1   
    88   81   90 1   
    89   82   83 1   
    90   82   84 2   
    91   83   91 1   
    92   83   92 1   
    93   93   94 1   
    94   93  100 1   
    95   94   95 1   
    96   94   97 1   
    97   94  101 1   
    98   95   96 2   
    99   95  109 1   
   100   97   98 1   
   101   97   99 1   
   102   97  102 1   
   103   98  103 1   
   104   98  104 1   
   105   98  105 1   
   106   99  106 1   
   107   99  107 1   
   108   99  108 1   
   109  109  110 1   
   110  109  117 1   
   111  110  111 1   
   112  110  113 1   
   113  110  118 1   
   114  111  112 2   
   115  111  123 1   
   116  113  114 1   
   117  113  119 1   
   118  113  120 1   
   119  114  115 1   
   120  114  116 2   
   121  115  121 1   
   122  115  122 1   
   123  123  124 1   
   124  123  135 1   
   125  124  125 1   
   126  124  127 1   
   127  124  136 1   
   128  125  126 2   
   129  125  144 1   
   130  127  128 1   
   131  127  137 1   
   132  127  138 1   
   133  128  129 ar  
   134  128  130 ar  
   135  129  131 ar  
   136  129  139 1   
   137  130  132 ar  
   138  130  140 1   
   139  131  133 ar  
   140  131  141 1   
   141  132  133 ar  
   142  132  142 1   
   143  133  134 1   
   144  134  143 1   
   145  144  145 1   
   146  144  153 1   
   147  145  146 1   
   148  145  148 1   
   149  145  154 1   
   150  146  147 2   
   151  146  159 1   
   152  148  149 1   
   153  148  155 1   
   154  148  156 1   
   155  149  150 1   
   156  149  157 1   
   157  149  158 1   
   158  150  151 1   
   159  150  152 1   
   160  159  160 1   
   161  159  168 1   
   162  160  161 1   
   163  160  163 1   
   164  160  169 1   
   165  161  162 2   
   166  161  174 1   
   167  163  164 1   
   168  163  170 1   
   169  163  171 1   
   170  164  165 1   
   171  164  172 1   
   172  164  173 1   
   173  165  166 1   
   174  165  167 1   
   175  174  175 1   
   176  174  179 1   
   177  175  176 1   
   178  175  177 1   
   179  175  178 1   
   180  181  182 1   
   181  181  183 1   
   182  184  185 1   
   183  184  186 1   
   184  187  188 1   
   185  187  189 1   
@<TRIPOS>SUBSTRUCTURE
     1 MOL         1 TEMP              0 ****  ****    0 ROOT
