@<TRIPOS>MOLECULE
MOL
  189   185     1     0     0
SMALL
resp


@<TRIPOS>ATOM
      1 C1          4.4010   -4.4860    2.8420 c3        1 MOL     -0.491969
      2 C2          5.2490   -3.6450    1.7860 c         1 MOL      0.765090
      3 O1          4.7580   -3.0640    0.8190 o         1 MOL     -0.600114
      4 H1          4.6200   -4.1310    3.8490 hc        1 MOL      0.126944
      5 H2          3.3380   -4.3610    2.6360 hc        1 MOL      0.126944
      6 H3          4.6650   -5.5410    2.7650 hc        1 MOL      0.126944
      7 N1          6.5060   -3.3430    2.1210 n         1 MOL     -0.768733
      8 C3          7.2500   -2.1860    1.6520 c3        1 MOL      0.503442
      9 C4          6.4120   -0.8390    1.5770 c         1 MOL      0.105142
     10 O2          6.1120   -0.3260    0.4940 o         1 MOL     -0.206687
     11 C5          8.0510   -2.4790    0.4150 c3        1 MOL     -0.228618
     12 C6          7.3060   -3.2620   -0.6270 c         1 MOL      0.788083
     13 O3          6.6320   -2.6220   -1.4600 o         1 MOL     -0.731971
     14 O4          7.4710   -4.5080   -0.7520 o         1 MOL     -0.731971
     15 H4          6.7980   -3.8990    2.9050 hn        1 MOL      0.327515
     16 H5          8.0680   -1.9940    2.3510 h1        1 MOL     -0.014371
     17 H6          8.8210   -3.1510    0.7970 hc        1 MOL      0.020246
     18 H7          8.5380   -1.6100   -0.0150 hc        1 MOL      0.020246
     19 N2          6.0720   -0.2580    2.7470 n         1 MOL     -0.452302
     20 C7          5.3600    1.0050    2.9990 c3        1 MOL      0.051733
     21 C8          5.9360    2.2920    2.3090 c         1 MOL      0.403324
     22 O5          5.9440    3.3250    2.9830 o         1 MOL     -0.561090
     23 C9          3.8790    0.8570    2.5280 c3        1 MOL      0.232793
     24 C10         2.8930    2.0680    2.8740 c3        1 MOL     -0.020095
     25 C11         3.1900   -0.4390    2.9580 c3        1 MOL     -0.335203
     26 C12         2.8220    2.4010    4.3510 c3        1 MOL     -0.607335
     27 H8          6.2110   -0.8170    3.5710 hn        1 MOL      0.274753
     28 H9          5.4000    1.1140    4.0890 h1        1 MOL      0.071652
     29 H10         3.9550    0.6590    1.4610 hc        1 MOL     -0.052693
     30 H11         1.9060    1.7920    2.4980 hc        1 MOL      0.078831
     31 H12         3.2010    2.9550    2.3150 hc        1 MOL      0.078831
     32 H13         3.3500   -0.6120    4.0240 hc        1 MOL      0.075446
     33 H14         2.1090   -0.3470    2.9050 hc        1 MOL      0.075446
     34 H15         3.3370   -1.2920    2.2960 hc        1 MOL      0.075446
     35 H16         3.8450    2.3790    4.7440 hc        1 MOL      0.146940
     36 H17         2.3510    3.3730    4.5290 hc        1 MOL      0.146940
     37 H18         2.0810    1.7010    4.7170 hc        1 MOL      0.146940
     38 N3          6.5510    2.2600    1.1370 n         1 MOL     -0.140351
     39 C13         7.1420    3.3570    0.3690 c3        1 MOL      0.021562
     40 C14         6.2640    4.5970    0.2500 c         1 MOL      0.569363
     41 O6          6.7330    5.7490    0.4210 o         1 MOL     -0.598848
     42 C15         7.6660    2.7770   -0.9630 c3        1 MOL     -0.279430
     43 C16         8.7190    1.7140   -0.8100 c         1 MOL      0.799518
     44 O7          9.5370    1.7360    0.1420 o         1 MOL     -0.728659
     45 O8          8.8470    0.9210   -1.7230 o         1 MOL     -0.728659
     46 H19         6.5050    1.3550    0.6990 hn        1 MOL      0.145683
     47 H20         7.9780    3.6410    1.0140 h1        1 MOL      0.040953
     48 H21         8.1610    3.5750   -1.5260 hc        1 MOL      0.085839
     49 H22         6.8520    2.4440   -1.6070 hc        1 MOL      0.085839
     50 N4          4.9820    4.5900   -0.1690 n         1 MOL     -0.528604
     51 C17         4.1520    3.4610   -0.6840 c3        1 MOL      0.369904
     52 C18         4.1000    3.5040   -2.2140 c         1 MOL      0.359613
     53 O9          4.9640    4.1010   -2.8290 o         1 MOL     -0.543602
     54 H23         4.5490    5.4910   -0.0440 hn        1 MOL      0.277927
     55 H24         3.1090    3.6530   -0.4300 h1        1 MOL     -0.050906
     56 H25         4.5380    2.5290   -0.2720 h1        1 MOL     -0.050906
     57 N5          3.2650    2.7290   -2.8710 n         1 MOL     -0.300796
     58 C19         1.9780    2.1540   -2.4390 c3        1 MOL      0.053717
     59 C20         2.0670    1.1620   -1.2930 c         1 MOL      0.218099
     60 O10         3.1610    0.7580   -0.9770 o         1 MOL     -0.604999
     61 C21         1.5510    1.2780   -3.7310 c3        1 MOL     -0.484370
     62 C22         2.5580    0.1820   -4.0870 c         1 MOL      0.921966
     63 O11         3.3420    0.3990   -5.0470 o         1 MOL     -0.749252
     64 O12         2.7760   -0.8290   -3.3610 o         1 MOL     -0.749252
     65 H26         3.3530    2.8160   -3.8780 hn        1 MOL      0.292426
     66 H27         1.2860    2.9760   -2.2410 h1        1 MOL      0.070856
     67 H28         1.4810    2.0470   -4.5030 hc        1 MOL      0.132807
     68 H29         0.6390    0.6940   -3.5800 hc        1 MOL      0.132807
     69 N6          1.0280    0.7170   -0.5980 n         1 MOL     -0.007946
     70 C23        -0.3500    1.1310   -0.7570 c3        1 MOL      0.128305
     71 C24        -0.7450    2.4000    0.0040 c         1 MOL      0.438629
     72 O13         0.0190    2.8490    0.8660 o         1 MOL     -0.489544
     73 H30         1.1780   -0.1150   -0.0480 hn        1 MOL      0.107302
     74 H31        -1.0520    0.3640   -0.4310 h1        1 MOL     -0.032017
     75 H32        -0.6810    1.1500   -1.7900 h1        1 MOL     -0.032017
     76 N7         -1.9060    2.9390   -0.3990 n         1 MOL     -0.408804
     77 C25        -2.3880    4.1760    0.1620 c3        1 MOL     -0.024827
     78 C26        -2.6770    3.9960    1.6840 c         1 MOL      0.235587
     79 O14        -2.7150    5.0020    2.3850 o         1 MOL     -0.485360
     80 C27        -3.5810    4.8170   -0.5950 c3        1 MOL      0.072566
     81 C28        -3.2600    5.6600   -1.7540 c3        1 MOL     -0.202903
     82 C29        -4.4050    6.5570   -2.0170 c         1 MOL      0.614732
     83 N8         -5.3560    6.0350   -2.7520 n         1 MOL     -0.781728
     84 O15        -4.5770    7.6630   -1.5130 o         1 MOL     -0.553726
     85 H33        -2.3730    2.3950   -1.1120 hn        1 MOL      0.294423
     86 H34        -1.6240    4.9480    0.1440 h1        1 MOL      0.160809
     87 H35        -4.1270    5.4360    0.1190 hc        1 MOL      0.066125
     88 H36        -4.2290    4.0070   -0.9080 hc        1 MOL      0.066125
     89 H37        -3.0110    4.9730   -2.5610 hc        1 MOL      0.050136
     90 H38        -2.3940    6.2700   -1.5060 hc        1 MOL      0.050136
     91 H39        -5.3760    5.1060   -3.1540 hn        1 MOL      0.357432
     92 H40        -6.1300    6.6310   -3.0040 hn        1 MOL      0.357432
     93 N9         -2.8520    2.7830    2.1890 n         1 MOL     -0.086060
     94 C30        -3.2270    2.4160    3.5490 c3        1 MOL     -0.048677
     95 C31        -4.5860    1.7790    3.7000 c         1 MOL      0.567973
     96 O16        -5.1140    1.7350    4.8100 o         1 MOL     -0.552538
     97 C32        -2.2530    1.5290    4.2680 c3        1 MOL      0.219787
     98 C33        -1.1030    2.4110    4.7040 c3        1 MOL     -0.130278
     99 C34        -1.7540    0.3270    3.4930 c3        1 MOL     -0.130278
    100 H41        -2.8180    1.9790    1.5850 hn        1 MOL      0.215097
    101 H42        -3.2780    3.2930    4.1970 h1        1 MOL      0.076583
    102 H43        -2.7520    1.0900    5.1360 hc        1 MOL     -0.009681
    103 H44        -0.3450    1.7840    5.1620 hc        1 MOL      0.019568
    104 H45        -0.7280    2.9460    3.8260 hc        1 MOL      0.019568
    105 H46        -1.4760    3.0310    5.5120 hc        1 MOL      0.019568
    106 H47        -1.1940    0.6000    2.5950 hc        1 MOL      0.019568
    107 H48        -1.1370   -0.2900    4.1420 hc        1 MOL      0.019568
    108 H49        -2.5800   -0.2880    3.1240 hc        1 MOL      0.019568
    109 N10        -5.1750    1.2310    2.6060 n         1 MOL     -0.432646
    110 C35        -6.6150    0.8720    2.6380 c3        1 MOL      0.016521
    111 C36        -6.9770   -0.4200    1.8870 c         1 MOL      0.509796
    112 O17        -7.9240   -1.1870    2.1690 o         1 MOL     -0.565488
    113 C37        -7.5130    2.0630    2.3500 c3        1 MOL     -0.405964
    114 C38        -7.6290    2.3600    0.8350 c         1 MOL      0.678486
    115 N11        -8.7460    2.3150    0.2020 n         1 MOL     -0.727398
    116 O18        -6.6060    2.5540    0.1520 o         1 MOL     -0.624149
    117 H50        -4.7560    1.1300    1.6940 hn        1 MOL      0.120193
    118 H51        -6.8390    0.6560    3.6830 h1        1 MOL      0.122767
    119 H52        -7.2180    2.9920    2.8320 hc        1 MOL      0.151946
    120 H53        -8.5240    1.8780    2.7150 hc        1 MOL      0.151946
    121 H54        -9.6360    2.1220    0.6300 hn        1 MOL      0.340333
    122 H55        -8.6590    2.1200   -0.7850 hn        1 MOL      0.340333
    123 N12        -6.2800   -0.6120    0.7570 n         1 MOL     -0.357862
    124 C39        -6.3600   -1.8110   -0.0800 c3        1 MOL      0.059228
    125 C40        -5.0080   -2.5320   -0.1820 c         1 MOL      0.464012
    126 O19        -3.9390   -2.0850    0.2730 o         1 MOL     -0.506790
    127 C41        -6.8730   -1.3530   -1.4750 c3        1 MOL     -0.207887
    128 C42        -8.2930   -0.8950   -1.6170 ca        1 MOL      0.087766
    129 C43        -8.6270    0.2600   -2.3620 ca        1 MOL     -0.128711
    130 C44        -9.3310   -1.7130   -1.2450 ca        1 MOL     -0.128711
    131 C45        -9.9690    0.5380   -2.7170 ca        1 MOL     -0.232489
    132 C46       -10.6700   -1.4210   -1.4920 ca        1 MOL     -0.232489
    133 C47       -10.9830   -0.2640   -2.1790 ca        1 MOL      0.270451
    134 O20       -12.2670    0.1030   -2.4860 oh        1 MOL     -0.498900
    135 H56        -5.6050    0.1160    0.5430 hn        1 MOL      0.365593
    136 H57        -7.0300   -2.5700    0.3310 h1        1 MOL      0.082389
    137 H58        -6.8760   -2.1340   -2.2270 hc        1 MOL      0.091214
    138 H59        -6.2320   -0.5300   -1.8020 hc        1 MOL      0.091214
    139 H60        -7.8270    0.8990   -2.7180 ha        1 MOL      0.123169
    140 H61        -9.0990   -2.6510   -0.7610 ha        1 MOL      0.123169
    141 H62       -10.1620    1.4640   -3.2360 ha        1 MOL      0.133935
    142 H63       -11.4700   -2.0040   -1.0650 ha        1 MOL      0.133935
    143 H64       -12.9400   -0.5050   -2.1700 ho        1 MOL      0.366423
    144 N13        -5.0600   -3.6890   -0.8180 n         1 MOL     -0.473410
    145 C48        -4.0690   -4.5950   -1.4400 c3        1 MOL      0.045904
    146 C49        -2.8390   -5.1460   -0.6040 c         1 MOL      0.314010
    147 O21        -2.3610   -6.2940   -0.8880 o         1 MOL     -0.487408
    148 C50        -3.5180   -3.9370   -2.7450 c3        1 MOL     -0.028066
    149 C51        -2.3260   -2.9390   -2.6040 c3        1 MOL     -0.001516
    150 C52        -2.1640   -2.1860   -3.8650 c         1 MOL      0.666137
    151 O22        -2.7060   -1.0530   -3.9390 o         1 MOL     -0.734953
    152 O23        -1.4660   -2.6990   -4.7820 o         1 MOL     -0.734953
    153 H65        -6.0260   -3.9610   -0.8900 hn        1 MOL      0.278490
    154 H66        -4.5360   -5.5250   -1.7390 h1        1 MOL      0.057953
    155 H67        -4.3550   -3.5150   -3.3070 hc        1 MOL      0.022896
    156 H68        -3.1390   -4.7470   -3.3760 hc        1 MOL      0.022896
    157 H69        -1.4250   -3.5090   -2.3850 hc        1 MOL      0.024207
    158 H70        -2.5770   -2.1560   -1.8740 hc        1 MOL      0.024207
    159 N14        -2.2680   -4.3690    0.3530 n         1 MOL     -0.336921
    160 C53        -1.1110   -4.7580    1.1160 c3        1 MOL      0.175611
    161 C54        -1.4300   -5.5410    2.3810 c         1 MOL      0.456847
    162 O24        -0.6610   -6.4350    2.7120 o         1 MOL     -0.540978
    163 C55        -0.3420   -3.5220    1.5770 c3        1 MOL     -0.306809
    164 C56         0.1700   -2.5780    0.4840 c3        1 MOL      0.485883
    165 C57         1.2910   -3.0610   -0.4470 c         1 MOL      0.537141
    166 O25         2.2060   -2.2470   -0.7430 o         1 MOL     -0.625037
    167 O26         1.3000   -4.2180   -0.9000 o         1 MOL     -0.625037
    168 H71        -2.6440   -3.4350    0.3440 hn        1 MOL      0.291543
    169 H72        -0.4690   -5.4110    0.5270 h1        1 MOL      0.100214
    170 H73         0.5110   -3.7470    2.2130 hc        1 MOL      0.033642
    171 H74        -1.0210   -2.8490    2.1160 hc        1 MOL      0.033642
    172 H75         0.4770   -1.7460    1.1100 hc        1 MOL     -0.136366
    173 H76        -0.6250   -2.2600   -0.1810 hc        1 MOL     -0.136366
    174 N15        -2.5910   -5.2730    2.9840 n         1 MOL     -0.302337
    175 C58        -3.3840   -6.1950    3.8170 c3        1 MOL     -0.217976
    176 H77        -3.3630   -5.8560    4.8530 h1        1 MOL      0.098128
    177 H78        -4.4140   -6.2130    3.4610 h1        1 MOL      0.098128
    178 H79        -2.9600   -7.1970    3.7550 h1        1 MOL      0.098128
    179 H80        -2.9960   -4.3910    2.7020 hn        1 MOL      0.225788
    180 Ca1         4.5520   -1.3410   -1.6000 Ca        1 MOL      1.758080
    181 O27         5.3130   -1.8520   -4.3020 oh        1 MOL     -0.837376
    182 H81         4.6660   -1.1740   -4.4910 ho        1 MOL      0.391414
    183 H82         5.2290   -2.4720   -5.0290 ho        1 MOL      0.391414
    184 O28         4.0550   -4.0120   -1.8670 oh        1 MOL     -0.837376
    185 H83         3.2340   -3.8870   -1.4020 ho        1 MOL      0.391414
    186 H84         4.3870   -4.8530   -1.5500 ho        1 MOL      0.391414
    187 O29         6.3870    0.2130   -2.5940 oh        1 MOL     -0.837376
    188 H85         6.4520    0.5060   -3.5050 ho        1 MOL      0.391414
    189 H86         7.2790    0.3060   -2.2470 ho        1 MOL      0.391414
@<TRIPOS>BOND
     1    1    2 1   
     2    1    4 1   
     3    1    5 1   
     4    1    6 1   
     5    2    3 2   
     6    2    7 1   
     7    7    8 1   
     8    7   15 1   
     9    8    9 1   
    10    8   11 1   
    11    8   16 1   
    12    9   10 2   
    13    9   19 1   
    14   11   12 1   
    15   11   17 1   
    16   11   18 1   
    17   12   13 1   
    18   12   14 1   
    19   19   20 1   
    20   19   27 1   
    21   20   21 1   
    22   20   23 1   
    23   20   28 1   
    24   21   22 2   
    25   21   38 1   
    26   23   24 1   
    27   23   25 1   
    28   23   29 1   
    29   24   26 1   
    30   24   30 1   
    31   24   31 1   
    32   25   32 1   
    33   25   33 1   
    34   25   34 1   
    35   26   35 1   
    36   26   36 1   
    37   26   37 1   
    38   38   39 1   
    39   38   46 1   
    40   39   40 1   
    41   39   42 1   
    42   39   47 1   
    43   40   41 2   
    44   40   50 1   
    45   42   43 1   
    46   42   48 1   
    47   42   49 1   
    48   43   44 1   
    49   43   45 1   
    50   50   51 1   
    51   50   54 1   
    52   51   52 1   
    53   51   55 1   
    54   51   56 1   
    55   52   53 2   
    56   52   57 1   
    57   57   58 1   
    58   57   65 1   
    59   58   59 1   
    60   58   61 1   
    61   58   66 1   
    62   59   60 2   
    63   59   69 1   
    64   61   62 1   
    65   61   67 1   
    66   61   68 1   
    67   62   63 1   
    68   62   64 1   
    69   69   70 1   
    70   69   73 1   
    71   70   71 1   
    72   70   74 1   
    73   70   75 1   
    74   71   72 2   
    75   71   76 1   
    76   76   77 1   
    77   76   85 1   
    78   77   78 1   
    79   77   80 1   
    80   77   86 1   
    81   78   79 2   
    82   78   93 1   
    83   80   81 1   
    84   80   87 1   
    85   80   88 1   
    86   81   82 1   
    87   81   89 1   
    88   81   90 1   
    89   82   83 1   
    90   82   84 2   
    91   83   91 1   
    92   83   92 1   
    93   93   94 1   
    94   93  100 1   
    95   94   95 1   
    96   94   97 1   
    97   94  101 1   
    98   95   96 2   
    99   95  109 1   
   100   97   98 1   
   101   97   99 1   
   102   97  102 1   
   103   98  103 1   
   104   98  104 1   
   105   98  105 1   
   106   99  106 1   
   107   99  107 1   
   108   99  108 1   
   109  109  110 1   
   110  109  117 1   
   111  110  111 1   
   112  110  113 1   
   113  110  118 1   
   114  111  112 2   
   115  111  123 1   
   116  113  114 1   
   117  113  119 1   
   118  113  120 1   
   119  114  115 1   
   120  114  116 2   
   121  115  121 1   
   122  115  122 1   
   123  123  124 1   
   124  123  135 1   
   125  124  125 1   
   126  124  127 1   
   127  124  136 1   
   128  125  126 2   
   129  125  144 1   
   130  127  128 1   
   131  127  137 1   
   132  127  138 1   
   133  128  129 ar  
   134  128  130 ar  
   135  129  131 ar  
   136  129  139 1   
   137  130  132 ar  
   138  130  140 1   
   139  131  133 ar  
   140  131  141 1   
   141  132  133 ar  
   142  132  142 1   
   143  133  134 1   
   144  134  143 1   
   145  144  145 1   
   146  144  153 1   
   147  145  146 1   
   148  145  148 1   
   149  145  154 1   
   150  146  147 2   
   151  146  159 1   
   152  148  149 1   
   153  148  155 1   
   154  148  156 1   
   155  149  150 1   
   156  149  157 1   
   157  149  158 1   
   158  150  151 1   
   159  150  152 1   
   160  159  160 1   
   161  159  168 1   
   162  160  161 1   
   163  160  163 1   
   164  160  169 1   
   165  161  162 2   
   166  161  174 1   
   167  163  164 1   
   168  163  170 1   
   169  163  171 1   
   170  164  165 1   
   171  164  172 1   
   172  164  173 1   
   173  165  166 1   
   174  165  167 1   
   175  174  175 1   
   176  174  179 1   
   177  175  176 1   
   178  175  177 1   
   179  175  178 1   
   180  181  182 1   
   181  181  183 1   
   182  184  185 1   
   183  184  186 1   
   184  187  188 1   
   185  187  189 1   
@<TRIPOS>SUBSTRUCTURE
     1 MOL         1 TEMP              0 ****  ****    0 ROOT
