@<TRIPOS>MOLECULE
MOL
  178   175     1     0     0
SMALL
resp


@<TRIPOS>ATOM
      1 C1          0.1630    6.2110   -2.1460 c3        1 MOL     -0.360662
      2 C2          1.6010    6.0730   -1.7090 c         1 MOL      0.716025
      3 O1          2.0240    6.8030   -0.8190 o         1 MOL     -0.608264
      4 H1          0.0290    7.1650   -2.6560 hc        1 MOL      0.088287
      5 H2         -0.0910    5.3980   -2.8260 hc        1 MOL      0.088287
      6 H3         -0.4880    6.1710   -1.2730 hc        1 MOL      0.088287
      7 N1          2.3550    5.2490   -2.4190 n         1 MOL     -0.596178
      8 C3          3.8130    4.9670   -2.2250 c3        1 MOL      0.135020
      9 C4          4.0800    4.1910   -0.8690 c         1 MOL      0.674121
     10 O2          4.0190    2.9830   -0.8190 o         1 MOL     -0.522402
     11 C5          4.4170    4.2630   -3.4680 c3        1 MOL     -0.381251
     12 C6          5.9780    4.1460   -3.4480 c         1 MOL      0.761196
     13 O3          6.6050    4.6340   -2.4810 o         1 MOL     -0.729038
     14 O4          6.6020    3.7520   -4.4920 o         1 MOL     -0.729038
     15 H4          1.8900    4.7580   -3.1700 hn        1 MOL      0.324795
     16 H5          4.3740    5.8970   -2.1770 h1        1 MOL      0.079048
     17 H6          4.1200    4.8920   -4.3110 hc        1 MOL      0.060617
     18 H7          3.9010    3.3240   -3.6900 hc        1 MOL      0.060617
     19 N2          4.5160    4.8930    0.1900 n         1 MOL     -0.574478
     20 C7          4.8070    4.3600    1.5260 c3        1 MOL      0.391089
     21 C8          3.4520    3.8860    2.1570 c         1 MOL      0.441541
     22 O5          2.3570    4.3980    1.8400 o         1 MOL     -0.544526
     23 C9          5.6300    5.3400    2.3980 c3        1 MOL     -0.457245
     24 H8          4.7200    5.8820    0.1600 hn        1 MOL      0.293663
     25 H9          5.3820    3.4470    1.4010 h1        1 MOL      0.014301
     26 H10         4.9480    6.1370    2.7120 hc        1 MOL      0.116694
     27 H11         5.9850    4.7550    3.2350 hc        1 MOL      0.116694
     28 H12         6.5380    5.7920    2.0000 hc        1 MOL      0.116694
     29 N3          3.3910    2.8610    2.9860 n         1 MOL     -0.329198
     30 C10         4.4500    1.9130    3.3960 c3        1 MOL     -0.017605
     31 C11         4.6580    0.7830    2.3240 c         1 MOL      0.444860
     32 O6          3.7630    0.5100    1.5570 o         1 MOL     -0.476193
     33 C12         4.1480    1.4060    4.8010 c3        1 MOL     -0.272186
     34 C13         2.7130    0.9470    4.9870 c         1 MOL      0.653043
     35 O7          2.0700    0.5560    3.9650 o         1 MOL     -0.647661
     36 O8          2.1940    0.8950    6.1370 o         1 MOL     -0.647661
     37 H13         2.4520    2.5320    3.1610 hn        1 MOL      0.267514
     38 H14         5.4280    2.3870    3.4190 h1        1 MOL      0.068897
     39 H15         4.3290    2.2360    5.4880 hc        1 MOL      0.065099
     40 H16         4.8980    0.6260    4.8960 hc        1 MOL      0.065099
     41 N4          5.8820    0.1630    2.3280 n         1 MOL     -0.469981
     42 C14         6.2400   -0.8730    1.3490 c3        1 MOL      0.037100
     43 C15         6.9950   -0.3330    0.0930 c         1 MOL      0.551201
     44 O9          7.1110    0.8590   -0.0780 o         1 MOL     -0.477374
     45 H17         6.6770    0.4940    2.8560 hn        1 MOL      0.299878
     46 H18         5.2880   -1.2650    0.9650 h1        1 MOL      0.067250
     47 H19         6.7360   -1.7630    1.7330 h1        1 MOL      0.067250
     48 N5          7.4980   -1.2150   -0.7650 n         1 MOL     -0.616442
     49 C16         7.2800   -2.7430   -0.8090 c3        1 MOL      0.337930
     50 C17         6.4360   -3.3200   -2.0020 c         1 MOL      0.395106
     51 O10         6.5240   -4.5100   -2.3420 o         1 MOL     -0.437942
     52 C18         8.6820   -3.4250   -0.7540 c3        1 MOL     -0.371503
     53 C19         8.7040   -4.9290   -0.3790 c         1 MOL      0.595451
     54 N6          9.4510   -5.7030   -1.1090 n         1 MOL     -0.685700
     55 O11         7.9300   -5.3410    0.4720 o         1 MOL     -0.534221
     56 H20         8.1170   -0.8500   -1.4690 hn        1 MOL      0.322646
     57 H21         6.7450   -3.0650    0.0930 h1        1 MOL      0.011629
     58 H22         9.3140   -2.8440   -0.0890 hc        1 MOL      0.093739
     59 H23         9.1380   -3.3650   -1.7410 hc        1 MOL      0.093739
     60 H24        10.1980   -5.2370   -1.6160 hn        1 MOL      0.337025
     61 H25         9.6030   -6.6540   -0.8000 hn        1 MOL      0.337025
     62 N7          5.7000   -2.4080   -2.6340 n         1 MOL     -0.367961
     63 C20         4.6210   -2.6300   -3.5530 c3        1 MOL     -0.064732
     64 C21         3.3780   -3.4330   -3.0070 c         1 MOL      0.531053
     65 O12         2.9750   -4.4190   -3.6030 o         1 MOL     -0.529084
     66 H26         5.8290   -1.4600   -2.3140 hn        1 MOL      0.281786
     67 H27         4.9330   -3.2340   -4.4040 h1        1 MOL      0.083308
     68 H28         4.1890   -1.7220   -3.9670 h1        1 MOL      0.083308
     69 N8          2.8690   -2.9610   -1.9040 n         1 MOL     -0.366539
     70 C22         1.9650   -3.7020   -1.0970 c3        1 MOL     -0.018181
     71 C23         0.7000   -2.9820   -0.7230 c         1 MOL      0.506016
     72 O13         0.7770   -1.8250   -0.3220 o         1 MOL     -0.559680
     73 C24         2.6790   -4.2430    0.1520 c3        1 MOL      0.171159
     74 C25         3.7100   -5.2830   -0.2690 c3        1 MOL     -0.227785
     75 O14         3.3850   -3.2230    0.7470 oh        1 MOL     -0.666944
     76 H29         3.2020   -2.0980   -1.4860 hn        1 MOL      0.254995
     77 H30         1.5390   -4.5500   -1.6400 h1        1 MOL      0.073034
     78 H31         1.9540   -4.5910    0.8880 h1        1 MOL      0.036269
     79 H32         3.8280   -3.6120    1.5010 ho        1 MOL      0.439106
     80 H33         4.5000   -4.7930   -0.8400 hc        1 MOL      0.077136
     81 H34         3.9940   -5.8010    0.6410 hc        1 MOL      0.077136
     82 H35         3.3350   -6.1670   -0.7870 hc        1 MOL      0.077136
     83 N9         -0.4680   -3.6210   -0.7310 n         1 MOL     -0.189024
     84 C26        -1.8520   -3.0490   -0.5200 c3        1 MOL     -0.397463
     85 C27        -2.3130   -3.1390    0.9660 c         1 MOL      0.349229
     86 O15        -2.2640   -4.1820    1.5760 o         1 MOL     -0.529244
     87 C28        -2.8810   -3.7260   -1.4510 c3        1 MOL      0.477077
     88 C29        -4.2550   -3.0050   -1.2250 c3        1 MOL      0.123550
     89 C30        -2.3770   -3.7320   -2.9010 c3        1 MOL     -0.424256
     90 C31        -5.3840   -3.6640   -2.0720 c3        1 MOL     -0.319601
     91 H36        -0.4310   -4.6300   -0.8410 hn        1 MOL      0.223385
     92 H37        -1.8350   -1.9940   -0.7950 h1        1 MOL      0.205991
     93 H38        -3.1120   -4.7530   -1.1840 hc        1 MOL     -0.051629
     94 H39        -4.2490   -1.9630   -1.5310 hc        1 MOL     -0.023824
     95 H40        -4.5650   -3.0740   -0.1740 hc        1 MOL     -0.023824
     96 H41        -1.3710   -4.1490   -2.8940 hc        1 MOL      0.080727
     97 H42        -3.0660   -4.3110   -3.5060 hc        1 MOL      0.080727
     98 H43        -2.4100   -2.7440   -3.3570 hc        1 MOL      0.080727
     99 H44        -5.2500   -4.7340   -1.8960 hc        1 MOL      0.055887
    100 H45        -6.4010   -3.3460   -1.8400 hc        1 MOL      0.055887
    101 H46        -5.2080   -3.5340   -3.1360 hc        1 MOL      0.055887
    102 N10        -2.7810   -2.0300    1.5240 n         1 MOL     -0.047675
    103 C32        -3.6180   -2.0040    2.7410 c3        1 MOL      0.092699
    104 C33        -5.0900   -1.6870    2.5320 c         1 MOL      0.318192
    105 O16        -5.9190   -2.3580    3.2420 o         1 MOL     -0.538199
    106 C34        -3.1400   -0.9690    3.8250 c3        1 MOL      0.006774
    107 C35        -1.6430   -0.9480    3.9560 c         1 MOL      0.709793
    108 O17        -0.9870   -0.1110    3.2820 o         1 MOL     -0.703539
    109 O18        -1.1450   -1.8450    4.6460 o         1 MOL     -0.703539
    110 H47        -2.8790   -1.2080    0.9470 hn        1 MOL      0.019899
    111 H48        -3.4190   -2.9710    3.1820 h1        1 MOL      0.057415
    112 H49        -3.4850   -1.2950    4.8050 hc        1 MOL     -0.020176
    113 H50        -3.5480    0.0260    3.6500 hc        1 MOL     -0.020176
    114 N11        -5.4070   -0.8740    1.5510 n         1 MOL     -0.325126
    115 C36        -6.7790   -0.4450    1.2660 c3        1 MOL      0.165960
    116 C37        -6.7640    0.8760    0.4040 c         1 MOL      0.150962
    117 O19        -7.2620    0.9660   -0.7320 o         1 MOL     -0.439165
    118 C38        -7.4920   -1.6070    0.5040 c3        1 MOL     -0.160696
    119 C39        -8.9640   -1.6790    0.2280 ca        1 MOL      0.107481
    120 C40        -9.9110   -0.8680    0.8430 ca        1 MOL     -0.155720
    121 C41        -9.4140   -2.4910   -0.8190 ca        1 MOL     -0.155720
    122 C42       -11.2260   -0.8130    0.3970 ca        1 MOL     -0.126592
    123 C43       -10.7580   -2.4860   -1.2540 ca        1 MOL     -0.126592
    124 C44       -11.7010   -1.5630   -0.6790 ca        1 MOL     -0.124212
    125 H51        -4.6860   -0.4610    0.9740 hn        1 MOL      0.267317
    126 H52        -7.3300   -0.2460    2.1850 h1        1 MOL      0.043608
    127 H53        -7.3030   -2.5400    1.0260 hc        1 MOL      0.113387
    128 H54        -6.9920   -1.5880   -0.4630 hc        1 MOL      0.113387
    129 H55        -9.5370   -0.2750    1.6600 ha        1 MOL      0.107044
    130 H56        -8.7100   -3.0020   -1.4560 ha        1 MOL      0.107044
    131 H57       -11.9740   -0.1680    0.8380 ha        1 MOL      0.100468
    132 H58       -10.9920   -3.0900   -2.1170 ha        1 MOL      0.100468
    133 H59       -12.7440   -1.4450   -0.9510 ha        1 MOL      0.102924
    134 N12        -6.0870    1.8840    0.9100 n         1 MOL      0.195513
    135 C45        -5.9410    3.1470    0.2020 c3        1 MOL      0.013003
    136 C46        -5.3580    2.9850   -1.1990 c         1 MOL      0.269525
    137 O20        -5.8500    3.6720   -2.1280 o         1 MOL     -0.497073
    138 C47        -5.0990    4.0530    1.1230 c3        1 MOL     -0.042902
    139 C48        -5.7040    3.6230    2.4380 c3        1 MOL     -0.139882
    140 C49        -5.8380    2.0720    2.3350 c3        1 MOL     -0.054870
    141 H60        -6.9440    3.5670    0.2090 h1        1 MOL      0.051175
    142 H61        -4.0250    3.8980    1.0080 hc        1 MOL      0.061059
    143 H62        -5.3040    5.0820    0.8280 hc        1 MOL      0.061059
    144 H63        -5.0450    3.8990    3.2520 hc        1 MOL      0.048428
    145 H64        -6.6960    4.0570    2.5950 hc        1 MOL      0.048428
    146 H65        -4.8180    1.7130    2.5240 h1        1 MOL      0.056327
    147 H66        -6.6580    1.7160    2.9540 h1        1 MOL      0.056327
    148 N13        -4.4440    2.0300   -1.5610 n         1 MOL      0.009074
    149 C50        -3.8770    1.8190   -2.9310 c3        1 MOL     -0.439268
    150 C51        -5.0000    1.6270   -3.9200 c         1 MOL      0.605863
    151 O21        -5.1390    2.1990   -5.0290 o         1 MOL     -0.566149
    152 C52        -2.8520    0.6630   -2.9840 c3        1 MOL      0.044789
    153 C53        -1.7210    0.9090   -1.9820 c3        1 MOL     -0.010820
    154 C54        -1.9890    0.4700   -0.5120 c         1 MOL      0.737560
    155 O22        -1.0370    0.4060    0.3360 o         1 MOL     -0.671549
    156 O23        -3.1310    0.2370   -0.0470 o         1 MOL     -0.671549
    157 H67        -3.9570    1.6410   -0.7690 hn        1 MOL      0.087728
    158 H68        -3.3520    2.7030   -3.2880 h1        1 MOL      0.162608
    159 H69        -2.4340    0.8050   -3.9820 hc        1 MOL      0.010143
    160 H70        -3.2370   -0.3520   -2.9140 hc        1 MOL      0.010143
    161 H71        -1.3600    1.9320   -2.0060 hc        1 MOL      0.005881
    162 H72        -0.9050    0.3020   -2.3770 hc        1 MOL      0.005881
    163 N14        -5.9470    0.8000   -3.4680 n         1 MOL     -0.166111
    164 C55        -7.1220    0.4730   -4.2840 c3        1 MOL     -0.310659
    165 H73        -7.4770    1.3730   -4.7870 h1        1 MOL      0.109745
    166 H74        -6.8520   -0.2760   -5.0280 h1        1 MOL      0.109745
    167 H75        -7.9120    0.0800   -3.6440 h1        1 MOL      0.109745
    168 H76        -6.1300    0.6750   -2.4790 hn        1 MOL      0.193629
    169 Ca1         1.0750   -0.0840    1.6840 Ca        1 MOL      1.755167
    170 O24         0.6420    2.4050    1.9540 oh        1 MOL     -0.923547
    171 H77        -0.2400    2.6650    2.2120 ho        1 MOL      0.428796
    172 H78         1.1110    3.2220    1.8250 ho        1 MOL      0.428796
    173 O25         0.8070   -2.4230    2.9770 oh        1 MOL     -0.923547
    174 H79         0.0830   -2.3610    3.5960 ho        1 MOL      0.428796
    175 H80         1.0400   -3.3550    2.9720 ho        1 MOL      0.428796
    176 O26         1.9160    1.0880   -0.6180 oh        1 MOL     -0.923547
    177 H81         2.3720    0.4060   -1.1110 ho        1 MOL      0.428796
    178 H82         2.3550    1.9010   -0.8610 ho        1 MOL      0.428796
@<TRIPOS>BOND
     1    1    2 1   
     2    1    4 1   
     3    1    5 1   
     4    1    6 1   
     5    2    3 2   
     6    2    7 1   
     7    7    8 1   
     8    7   15 1   
     9    8    9 1   
    10    8   11 1   
    11    8   16 1   
    12    9   10 2   
    13    9   19 1   
    14   11   12 1   
    15   11   17 1   
    16   11   18 1   
    17   12   13 1   
    18   12   14 1   
    19   19   20 1   
    20   19   24 1   
    21   20   21 1   
    22   20   23 1   
    23   20   25 1   
    24   21   22 2   
    25   21   29 1   
    26   23   26 1   
    27   23   27 1   
    28   23   28 1   
    29   29   30 1   
    30   29   37 1   
    31   30   31 1   
    32   30   33 1   
    33   30   38 1   
    34   31   32 2   
    35   31   41 1   
    36   33   34 1   
    37   33   39 1   
    38   33   40 1   
    39   34   35 1   
    40   34   36 1   
    41   41   42 1   
    42   41   45 1   
    43   42   43 1   
    44   42   46 1   
    45   42   47 1   
    46   43   44 2   
    47   43   48 1   
    48   48   49 1   
    49   48   56 1   
    50   49   50 1   
    51   49   52 1   
    52   49   57 1   
    53   50   51 2   
    54   50   62 1   
    55   52   53 1   
    56   52   58 1   
    57   52   59 1   
    58   53   54 1   
    59   53   55 2   
    60   54   60 1   
    61   54   61 1   
    62   62   63 1   
    63   62   66 1   
    64   63   64 1   
    65   63   67 1   
    66   63   68 1   
    67   64   65 2   
    68   64   69 1   
    69   69   70 1   
    70   69   76 1   
    71   70   71 1   
    72   70   73 1   
    73   70   77 1   
    74   71   72 2   
    75   71   83 1   
    76   73   74 1   
    77   73   75 1   
    78   73   78 1   
    79   74   80 1   
    80   74   81 1   
    81   74   82 1   
    82   75   79 1   
    83   83   84 1   
    84   83   91 1   
    85   84   85 1   
    86   84   87 1   
    87   84   92 1   
    88   85   86 2   
    89   85  102 1   
    90   87   88 1   
    91   87   89 1   
    92   87   93 1   
    93   88   90 1   
    94   88   94 1   
    95   88   95 1   
    96   89   96 1   
    97   89   97 1   
    98   89   98 1   
    99   90   99 1   
   100   90  100 1   
   101   90  101 1   
   102  102  103 1   
   103  102  110 1   
   104  103  104 1   
   105  103  106 1   
   106  103  111 1   
   107  104  105 2   
   108  104  114 1   
   109  106  107 1   
   110  106  112 1   
   111  106  113 1   
   112  107  108 1   
   113  107  109 1   
   114  114  115 1   
   115  114  125 1   
   116  115  116 1   
   117  115  118 1   
   118  115  126 1   
   119  116  117 2   
   120  116  134 1   
   121  118  119 1   
   122  118  127 1   
   123  118  128 1   
   124  119  120 ar  
   125  119  121 ar  
   126  120  122 ar  
   127  120  129 1   
   128  121  123 ar  
   129  121  130 1   
   130  122  124 ar  
   131  122  131 1   
   132  123  124 ar  
   133  123  132 1   
   134  124  133 1   
   135  134  135 1   
   136  134  140 1   
   137  135  136 1   
   138  135  138 1   
   139  135  141 1   
   140  136  137 2   
   141  136  148 1   
   142  138  139 1   
   143  138  142 1   
   144  138  143 1   
   145  139  140 1   
   146  139  144 1   
   147  139  145 1   
   148  140  146 1   
   149  140  147 1   
   150  148  149 1   
   151  148  157 1   
   152  149  150 1   
   153  149  152 1   
   154  149  158 1   
   155  150  151 2   
   156  150  163 1   
   157  152  153 1   
   158  152  159 1   
   159  152  160 1   
   160  153  154 1   
   161  153  161 1   
   162  153  162 1   
   163  154  155 1   
   164  154  156 1   
   165  163  164 1   
   166  163  168 1   
   167  164  165 1   
   168  164  166 1   
   169  164  167 1   
   170  170  171 1   
   171  170  172 1   
   172  173  174 1   
   173  173  175 1   
   174  176  177 1   
   175  176  178 1   
@<TRIPOS>SUBSTRUCTURE
     1 MOL         1 TEMP              0 ****  ****    0 ROOT
