@<TRIPOS>MOLECULE
MOL
  186   183     1     0     0
SMALL
resp


@<TRIPOS>ATOM
      1 C1          4.4290    3.7270   -3.7520 c3        1 MOL     -0.427229
      2 C2          5.1030    3.0760   -2.5100 c         1 MOL      0.821555
      3 O1          4.4020    2.8210   -1.5170 o         1 MOL     -0.613322
      4 H1          4.1910    2.9550   -4.4820 hc        1 MOL      0.107826
      5 H2          3.5130    4.2320   -3.4460 hc        1 MOL      0.107826
      6 H3          5.1110    4.4510   -4.1990 hc        1 MOL      0.107826
      7 N1          6.4410    2.7870   -2.6180 n         1 MOL     -0.736236
      8 C3          7.1650    1.7830   -1.8880 c3        1 MOL      0.507295
      9 C4          6.2520    0.5770   -1.5030 c         1 MOL      0.132307
     10 O2          5.7830    0.4560   -0.3710 o         1 MOL     -0.636151
     11 C5          7.9840    2.4010   -0.6920 c3        1 MOL     -0.378093
     12 C6          7.2980    3.4960    0.1200 c         1 MOL      0.840601
     13 O3          6.3300    3.2400    0.8160 o         1 MOL     -0.757011
     14 O4          7.6850    4.7120   -0.0360 o         1 MOL     -0.757011
     15 H4          6.9290    3.0970   -3.4420 hn        1 MOL      0.320343
     16 H5          7.9430    1.3490   -2.5100 h1        1 MOL     -0.010106
     17 H6          8.9730    2.7380   -1.0070 hc        1 MOL      0.081122
     18 H7          8.2890    1.6070   -0.0110 hc        1 MOL      0.081122
     19 N2          6.0470   -0.2900   -2.4540 n         1 MOL     -0.302693
     20 C7          5.4570   -1.6520   -2.3340 c3        1 MOL     -0.011302
     21 C8          6.2000   -2.7440   -1.4030 c         1 MOL      0.388887
     22 O5          6.2420   -3.9180   -1.7390 o         1 MOL     -0.521935
     23 C9          3.9710   -1.6370   -2.0020 c3        1 MOL      0.193840
     24 C10         3.2050   -2.9550   -2.3440 c3        1 MOL      0.103455
     25 C11         3.2930   -0.4710   -2.7560 c3        1 MOL     -0.053681
     26 C12         3.3650   -3.4970   -3.7300 c3        1 MOL     -0.339489
     27 H8          6.3260    0.1020   -3.3380 hn        1 MOL      0.235381
     28 H9          5.4030   -2.0760   -3.3280 h1        1 MOL      0.060271
     29 H10         3.8420   -1.6190   -0.9200 hc        1 MOL     -0.047628
     30 H11         2.1580   -2.7450   -2.1280 hc        1 MOL      0.026033
     31 H12         3.4170   -3.7550   -1.6390 hc        1 MOL      0.026033
     32 H13         3.6380    0.5210   -2.4470 hc        1 MOL     -0.010246
     33 H14         3.4440   -0.4880   -3.8290 hc        1 MOL     -0.010246
     34 H15         2.2500   -0.6310   -2.4960 hc        1 MOL     -0.010246
     35 H16         2.5870   -4.2610   -3.7750 hc        1 MOL      0.067142
     36 H17         3.1490   -2.7550   -4.4950 hc        1 MOL      0.067142
     37 H18         4.3610   -3.8690   -3.9640 hc        1 MOL      0.067142
     38 N3          6.6980   -2.2230   -0.2180 n         1 MOL     -0.346619
     39 C13         7.5220   -3.0370    0.6740 c3        1 MOL      0.223991
     40 C14         6.8100   -4.3000    1.3300 c         1 MOL      0.517737
     41 O6          7.4660   -5.3210    1.5350 o         1 MOL     -0.592213
     42 C15         8.0350   -1.9660    1.6460 c3        1 MOL     -0.305140
     43 C16         9.1180   -1.1000    1.0480 c         1 MOL      0.785837
     44 O7          9.5480   -1.4110   -0.0770 o         1 MOL     -0.749458
     45 O8          9.6870   -0.1840    1.6510 o         1 MOL     -0.749458
     46 H19         6.4220   -1.2850    0.0410 hn        1 MOL      0.442228
     47 H20         8.3990   -3.4160    0.1610 h1        1 MOL      0.025873
     48 H21         8.5250   -2.4630    2.4950 hc        1 MOL      0.061447
     49 H22         7.2070   -1.3520    1.9780 hc        1 MOL      0.061447
     50 N4          5.5010   -4.3540    1.5060 n         1 MOL     -0.483596
     51 C17         4.4980   -3.2560    1.8080 c3        1 MOL     -0.026946
     52 C18         4.7660   -2.5000    3.1470 c         1 MOL      0.471217
     53 O9          5.8460   -2.6700    3.7890 o         1 MOL     -0.511554
     54 H23         5.1300   -5.2850    1.6550 hn        1 MOL      0.276833
     55 H24         3.5250   -3.7370    1.7330 h1        1 MOL      0.099284
     56 H25         4.6230   -2.5820    0.9630 h1        1 MOL      0.099284
     57 N5          3.7680   -1.7400    3.6080 n         1 MOL     -0.407199
     58 C19         2.4300   -1.5350    3.1410 c3        1 MOL      0.103732
     59 C20         2.4310   -0.9350    1.7340 c         1 MOL      0.115273
     60 O10         3.4600   -0.3530    1.3690 o         1 MOL     -0.489308
     61 C21         1.7550   -0.4420    4.0350 c3        1 MOL     -0.287621
     62 C22         2.5660    0.8950    4.0040 c         1 MOL      0.836839
     63 O11         3.4390    1.1000    4.9550 o         1 MOL     -0.719355
     64 O12         2.3940    1.7820    3.1270 o         1 MOL     -0.719355
     65 H26         4.1040   -1.1720    4.3700 hn        1 MOL      0.266444
     66 H27         1.8300   -2.4360    3.2400 h1        1 MOL      0.070480
     67 H28         1.8340   -0.7240    5.0900 hc        1 MOL      0.075756
     68 H29         0.7180   -0.2350    3.7820 hc        1 MOL      0.075756
     69 N6          1.2940   -0.8050    1.0210 n         1 MOL     -0.178414
     70 C23        -0.0020   -1.4570    1.3780 c3        1 MOL     -0.095200
     71 C24        -0.1340   -2.9240    0.8110 c         1 MOL      0.432352
     72 O13         0.8060   -3.5050    0.2540 o         1 MOL     -0.471629
     73 H30         1.3440   -0.2310    0.1890 hn        1 MOL      0.288866
     74 H31        -0.8640   -0.8590    1.1020 h1        1 MOL      0.077262
     75 H32        -0.1540   -1.5620    2.4560 h1        1 MOL      0.077262
     76 N7         -1.3930   -3.4470    0.8660 n         1 MOL     -0.471863
     77 C25        -1.7690   -4.7360    0.3010 c3        1 MOL      0.231440
     78 C26        -1.9950   -4.6180   -1.2050 c         1 MOL      0.381344
     79 O14        -1.7390   -5.5580   -1.9020 o         1 MOL     -0.510297
     80 C27        -2.9510   -5.3790    1.0820 c3        1 MOL     -0.082679
     81 C28        -4.2670   -4.5500    0.9070 c3        1 MOL     -0.026471
     82 C29        -5.3340   -4.9480    1.9920 c         1 MOL      0.623900
     83 N8         -6.3730   -4.1820    2.0450 n         1 MOL     -0.830680
     84 O15        -5.2810   -5.9810    2.6270 o         1 MOL     -0.576915
     85 H33        -2.0860   -2.9350    1.3870 hn        1 MOL      0.267980
     86 H34        -0.9430   -5.4350    0.3640 h1        1 MOL      0.058913
     87 H35        -2.6700   -5.5000    2.1280 hc        1 MOL      0.027814
     88 H36        -3.1160   -6.3670    0.6430 hc        1 MOL      0.027814
     89 H37        -4.6790   -4.7150   -0.0870 hc        1 MOL      0.030356
     90 H38        -4.0700   -3.4980    1.1270 hc        1 MOL      0.030356
     91 H39        -6.4310   -3.4540    1.3490 hn        1 MOL      0.377206
     92 H40        -7.0350   -4.3160    2.8080 hn        1 MOL      0.377206
     93 N9         -2.4370   -3.4360   -1.6840 n         1 MOL     -0.171235
     94 C30        -2.8020   -3.1540   -3.0970 c3        1 MOL     -0.272240
     95 C31        -4.1550   -2.5000   -3.3990 c         1 MOL      0.622052
     96 O16        -4.5060   -2.5630   -4.5990 o         1 MOL     -0.553104
     97 C32        -1.6580   -2.3110   -3.7330 c3        1 MOL      0.019560
     98 C33        -0.3730   -3.1200   -3.7350 c3        1 MOL     -0.002730
     99 C34        -1.4260   -1.0070   -2.8500 c3        1 MOL     -0.002730
    100 H41        -2.4720   -2.6440   -1.0670 hn        1 MOL      0.176003
    101 H42        -2.8070   -4.0880   -3.6540 h1        1 MOL      0.160119
    102 H43        -1.8220   -2.0330   -4.7740 hc        1 MOL      0.053273
    103 H44         0.0400   -3.2780   -2.7370 hc        1 MOL      0.002874
    104 H45        -0.3860   -4.0410   -4.3140 hc        1 MOL      0.002874
    105 H46         0.3430   -2.4610   -4.2180 hc        1 MOL      0.002874
    106 H47        -2.2870   -0.3740   -2.6330 hc        1 MOL      0.002874
    107 H48        -1.1530   -1.2370   -1.8230 hc        1 MOL      0.002874
    108 H49        -0.7020   -0.2990   -3.2720 hc        1 MOL      0.002874
    109 N10        -4.8990   -2.0130   -2.4010 n         1 MOL     -0.518736
    110 C35        -6.1470   -1.3130   -2.6640 c3        1 MOL      0.150860
    111 C36        -6.4760   -0.0620   -1.7930 c         1 MOL      0.464354
    112 O17        -7.5080    0.5970   -1.9740 o         1 MOL     -0.551871
    113 C37        -7.2590   -2.3940   -2.5430 c3        1 MOL     -0.351687
    114 C38        -7.5690   -2.7020   -1.0720 c         1 MOL      0.670819
    115 N11        -8.8270   -2.8570   -0.8460 n         1 MOL     -0.743268
    116 O18        -6.7650   -2.6460   -0.1500 o         1 MOL     -0.572791
    117 H50        -4.4730   -2.0020   -1.4880 hn        1 MOL      0.269395
    118 H51        -6.1520   -0.9110   -3.6740 h1        1 MOL      0.095712
    119 H52        -6.9840   -3.2870   -3.0960 hc        1 MOL      0.121084
    120 H53        -8.1120   -1.9190   -3.0190 hc        1 MOL      0.121084
    121 H54        -9.5150   -2.9250   -1.5860 hn        1 MOL      0.363976
    122 H55        -9.0450   -2.8660    0.1320 hn        1 MOL      0.363976
    123 N12        -5.6890    0.3200   -0.8140 n         1 MOL     -0.370265
    124 C39        -5.9280    1.5590   -0.0560 c3        1 MOL      0.140288
    125 C40        -4.6730    2.4980    0.2040 c         1 MOL      0.408045
    126 O19        -3.6210    1.9260    0.3250 o         1 MOL     -0.424985
    127 C41        -6.4290    1.1980    1.3700 c3        1 MOL     -0.261453
    128 C42        -7.7700    0.4620    1.3280 ca        1 MOL      0.208462
    129 C43        -7.8120   -0.7650    2.0050 ca        1 MOL     -0.198105
    130 C44        -9.0060    1.0890    1.0690 ca        1 MOL     -0.198105
    131 C45        -9.0060   -1.4620    2.2260 ca        1 MOL     -0.226339
    132 C46       -10.2110    0.3390    1.0960 ca        1 MOL     -0.226339
    133 C47       -10.1840   -0.9090    1.7240 ca        1 MOL      0.300298
    134 O20       -11.3300   -1.6570    1.7900 oh        1 MOL     -0.530954
    135 H56        -4.8790   -0.2140   -0.5490 hn        1 MOL      0.241408
    136 H57        -6.6700    2.1660   -0.5830 h1        1 MOL      0.047329
    137 H58        -6.6270    2.1500    1.8690 hc        1 MOL      0.128003
    138 H59        -5.6500    0.6270    1.8780 hc        1 MOL      0.128003
    139 H60        -6.9160   -1.1680    2.4550 ha        1 MOL      0.134427
    140 H61        -8.9670    2.0130    0.5240 ha        1 MOL      0.134427
    141 H62        -9.0410   -2.3950    2.7720 ha        1 MOL      0.126789
    142 H63       -11.1920    0.7200    0.8580 ha        1 MOL      0.126789
    143 H64       -12.0580   -1.2030    1.3650 ho        1 MOL      0.376298
    144 N13        -4.9030    3.7890    0.5020 n         1 MOL     -0.461121
    145 C48        -3.9360    4.8910    0.7990 c3        1 MOL     -0.093157
    146 C49        -2.6590    5.0410   -0.1000 c         1 MOL      0.268822
    147 O21        -1.8250    5.9140    0.0850 o         1 MOL     -0.479639
    148 C50        -3.6790    4.8770    2.3040 c3        1 MOL      0.408793
    149 C51        -5.0070    5.0020    3.0680 c3        1 MOL     -0.317797
    150 C52        -4.7640    5.0110    4.5480 c         1 MOL      0.626823
    151 O22        -5.0330    6.0420    5.2880 o         1 MOL     -0.707339
    152 O23        -4.0260    4.1680    5.0810 o         1 MOL     -0.707339
    153 H65        -5.8550    4.1220    0.4150 hn        1 MOL      0.292608
    154 H66        -4.4670    5.8180    0.5580 h1        1 MOL      0.103451
    155 H67        -3.0710    5.7070    2.6480 hc        1 MOL      0.005762
    156 H68        -3.1850    3.9340    2.5500 hc        1 MOL      0.005762
    157 H69        -5.7950    4.2470    2.9800 hc        1 MOL      0.005075
    158 H70        -5.4180    5.9610    2.7550 hc        1 MOL      0.005075
    159 N14        -2.4220    4.1810   -1.1080 n         1 MOL     -0.156214
    160 C53        -1.2720    4.1720   -2.0010 c3        1 MOL     -0.082686
    161 C54        -1.4550    4.8710   -3.3810 c         1 MOL      0.438674
    162 O24        -0.5580    4.8580   -4.2040 o         1 MOL     -0.509743
    163 C55        -0.7350    2.7260   -2.1560 c3        1 MOL      0.075472
    164 C56        -0.3850    2.0840   -0.8330 c3        1 MOL      0.422221
    165 C57         0.9660    2.4500   -0.3390 c         1 MOL      0.400687
    166 O25         1.9140    1.6180   -0.3970 o         1 MOL     -0.596895
    167 O26         1.0450    3.4950    0.3250 o         1 MOL     -0.596895
    168 H71        -2.9760    3.3380   -1.0520 hn        1 MOL      0.124605
    169 H72        -0.4470    4.7190   -1.5570 h1        1 MOL      0.129968
    170 H73         0.1740    2.7690   -2.7660 hc        1 MOL     -0.045272
    171 H74        -1.4430    2.1320   -2.7270 hc        1 MOL     -0.045272
    172 H75        -0.4670    0.9980   -0.8670 hc        1 MOL     -0.132076
    173 H76        -1.1810    2.3760   -0.1520 hc        1 MOL     -0.132076
    174 N15        -2.7120    5.3180   -3.6550 n         1 MOL     -0.228575
    175 C58        -3.1050    6.0150   -4.8740 c3        1 MOL     -0.143343
    176 H77        -3.4590    5.2910   -5.6080 h1        1 MOL      0.071012
    177 H78        -3.9040    6.7210   -4.6470 h1        1 MOL      0.071012
    178 H79        -2.2480    6.5530   -5.2790 h1        1 MOL      0.071012
    179 H80        -3.4090    5.0120   -2.9990 hn        1 MOL      0.193809
    180 Ca1         4.0850    2.1350    0.9490 Ca        1 MOL      1.840247
    181 O27         5.5490    1.6650    3.2820 oh        1 MOL     -0.919981
    182 H81         6.3210    1.1710    3.5600 ho        1 MOL      0.428322
    183 H82         4.8980    1.5080    3.9570 ho        1 MOL      0.428322
    184 O28         3.5700    4.6810    0.5240 oh        1 MOL     -0.919981
    185 H83         2.6470    4.5860    0.2870 ho        1 MOL      0.428322
    186 H84         3.8500    5.4940    0.0960 ho        1 MOL      0.428322
@<TRIPOS>BOND
     1    1    2 1   
     2    1    4 1   
     3    1    5 1   
     4    1    6 1   
     5    2    3 2   
     6    2    7 1   
     7    7    8 1   
     8    7   15 1   
     9    8    9 1   
    10    8   11 1   
    11    8   16 1   
    12    9   10 2   
    13    9   19 1   
    14   11   12 1   
    15   11   17 1   
    16   11   18 1   
    17   12   13 1   
    18   12   14 1   
    19   19   20 1   
    20   19   27 1   
    21   20   21 1   
    22   20   23 1   
    23   20   28 1   
    24   21   22 2   
    25   21   38 1   
    26   23   24 1   
    27   23   25 1   
    28   23   29 1   
    29   24   26 1   
    30   24   30 1   
    31   24   31 1   
    32   25   32 1   
    33   25   33 1   
    34   25   34 1   
    35   26   35 1   
    36   26   36 1   
    37   26   37 1   
    38   38   39 1   
    39   38   46 1   
    40   39   40 1   
    41   39   42 1   
    42   39   47 1   
    43   40   41 2   
    44   40   50 1   
    45   42   43 1   
    46   42   48 1   
    47   42   49 1   
    48   43   44 1   
    49   43   45 1   
    50   50   51 1   
    51   50   54 1   
    52   51   52 1   
    53   51   55 1   
    54   51   56 1   
    55   52   53 2   
    56   52   57 1   
    57   57   58 1   
    58   57   65 1   
    59   58   59 1   
    60   58   61 1   
    61   58   66 1   
    62   59   60 2   
    63   59   69 1   
    64   61   62 1   
    65   61   67 1   
    66   61   68 1   
    67   62   63 1   
    68   62   64 1   
    69   69   70 1   
    70   69   73 1   
    71   70   71 1   
    72   70   74 1   
    73   70   75 1   
    74   71   72 2   
    75   71   76 1   
    76   76   77 1   
    77   76   85 1   
    78   77   78 1   
    79   77   80 1   
    80   77   86 1   
    81   78   79 2   
    82   78   93 1   
    83   80   81 1   
    84   80   87 1   
    85   80   88 1   
    86   81   82 1   
    87   81   89 1   
    88   81   90 1   
    89   82   83 1   
    90   82   84 2   
    91   83   91 1   
    92   83   92 1   
    93   93   94 1   
    94   93  100 1   
    95   94   95 1   
    96   94   97 1   
    97   94  101 1   
    98   95   96 2   
    99   95  109 1   
   100   97   98 1   
   101   97   99 1   
   102   97  102 1   
   103   98  103 1   
   104   98  104 1   
   105   98  105 1   
   106   99  106 1   
   107   99  107 1   
   108   99  108 1   
   109  109  110 1   
   110  109  117 1   
   111  110  111 1   
   112  110  113 1   
   113  110  118 1   
   114  111  112 2   
   115  111  123 1   
   116  113  114 1   
   117  113  119 1   
   118  113  120 1   
   119  114  115 1   
   120  114  116 2   
   121  115  121 1   
   122  115  122 1   
   123  123  124 1   
   124  123  135 1   
   125  124  125 1   
   126  124  127 1   
   127  124  136 1   
   128  125  126 2   
   129  125  144 1   
   130  127  128 1   
   131  127  137 1   
   132  127  138 1   
   133  128  129 ar  
   134  128  130 ar  
   135  129  131 ar  
   136  129  139 1   
   137  130  132 ar  
   138  130  140 1   
   139  131  133 ar  
   140  131  141 1   
   141  132  133 ar  
   142  132  142 1   
   143  133  134 1   
   144  134  143 1   
   145  144  145 1   
   146  144  153 1   
   147  145  146 1   
   148  145  148 1   
   149  145  154 1   
   150  146  147 2   
   151  146  159 1   
   152  148  149 1   
   153  148  155 1   
   154  148  156 1   
   155  149  150 1   
   156  149  157 1   
   157  149  158 1   
   158  150  151 1   
   159  150  152 1   
   160  159  160 1   
   161  159  168 1   
   162  160  161 1   
   163  160  163 1   
   164  160  169 1   
   165  161  162 2   
   166  161  174 1   
   167  163  164 1   
   168  163  170 1   
   169  163  171 1   
   170  164  165 1   
   171  164  172 1   
   172  164  173 1   
   173  165  166 1   
   174  165  167 1   
   175  174  175 1   
   176  174  179 1   
   177  175  176 1   
   178  175  177 1   
   179  175  178 1   
   180  181  182 1   
   181  181  183 1   
   182  184  185 1   
   183  184  186 1   
@<TRIPOS>SUBSTRUCTURE
     1 MOL         1 TEMP              0 ****  ****    0 ROOT
