@<TRIPOS>MOLECULE
MOL
  182   178     1     0     0
SMALL
resp


@<TRIPOS>ATOM
      1 C1          0.6410   -3.7900    6.4630 c3        1 MOL     -0.363540
      2 C2          0.8810   -3.5940    4.9690 c         1 MOL      0.782336
      3 O1         -0.0980   -3.4730    4.2440 o         1 MOL     -0.636210
      4 H1          0.6260   -2.8180    6.9580 hc        1 MOL      0.101426
      5 H2         -0.3150   -4.2890    6.6150 hc        1 MOL      0.101426
      6 H3          1.4410   -4.3990    6.8830 hc        1 MOL      0.101426
      7 N1          2.0760   -3.3030    4.4750 n         1 MOL     -0.715806
      8 C3          2.3010   -2.9940    3.0610 c3        1 MOL      0.033756
      9 C4          2.7000   -4.3560    2.3540 c         1 MOL      0.682141
     10 O2          3.2050   -5.3130    3.0280 o         1 MOL     -0.558364
     11 C5          3.4080   -1.9520    2.9060 c3        1 MOL     -0.058840
     12 C6          3.6060   -1.3140    1.5510 c         1 MOL      0.403048
     13 O3          4.3330   -0.2970    1.5060 o         1 MOL     -0.602571
     14 O4          2.9240   -1.6450    0.6000 o         1 MOL     -0.602571
     15 H4          2.8150   -3.2700    5.1660 hn        1 MOL      0.355746
     16 H5          1.4290   -2.5350    2.5830 h1        1 MOL      0.072817
     17 H6          4.3590   -2.4110    3.1550 hc        1 MOL      0.056401
     18 H7          3.1690   -1.1260    3.5730 hc        1 MOL      0.056401
     19 N2          2.5380   -4.4240    1.0310 n         1 MOL     -0.585278
     20 C7          3.0470   -5.5460    0.2000 c3        1 MOL      0.181895
     21 C8          4.2410   -5.2790   -0.6770 c         1 MOL      0.352143
     22 O5          5.0050   -6.1830   -0.9940 o         1 MOL     -0.525263
     23 C9          1.8560   -6.2140   -0.6050 c3        1 MOL     -0.122981
     24 C10         1.3840   -5.4020   -1.8510 c3        1 MOL      0.052229
     25 C11         0.1820   -6.0510   -2.5510 c3        1 MOL     -0.015994
     26 C12        -0.1410   -5.3900   -3.9280 c3        1 MOL      0.050895
     27 N3          0.9590   -5.5810   -4.9140 n4        1 MOL     -0.215991
     28 H8          2.2070   -3.5740    0.5880 hn        1 MOL      0.263923
     29 H9          3.3780   -6.3740    0.8280 h1        1 MOL      0.095231
     30 H10         1.0520   -6.3350    0.1160 hc        1 MOL      0.048523
     31 H11         2.0760   -7.2640   -0.7670 hc        1 MOL      0.048523
     32 H12         2.1900   -5.2600   -2.5630 hc        1 MOL     -0.030001
     33 H13         1.2270   -4.3860   -1.4760 hc        1 MOL     -0.030001
     34 H14        -0.7460   -5.9180   -2.0040 hc        1 MOL      0.044419
     35 H15         0.4300   -7.1120   -2.6050 hc        1 MOL      0.044419
     36 H16        -0.3590   -4.3290   -3.9150 hx        1 MOL      0.064891
     37 H17        -1.0310   -5.9530   -4.2400 hx        1 MOL      0.064891
     38 H18         1.6560   -4.8440   -4.8630 hn        1 MOL      0.242652
     39 H19         1.2650   -6.5430   -4.9060 hn        1 MOL      0.242652
     40 H20         0.7000   -5.3250   -5.8510 hn        1 MOL      0.242652
     41 N4          4.4020   -4.0060   -1.0560 n         1 MOL     -0.163034
     42 C13         5.5420   -3.5470   -1.9020 c3        1 MOL      0.077564
     43 C14         6.6250   -2.8930   -1.0310 c         1 MOL      0.379297
     44 O6          7.8390   -2.9910   -1.3360 o         1 MOL     -0.517994
     45 C15         5.0970   -2.6750   -3.0210 c3        1 MOL     -0.371131
     46 C16         4.2250   -1.5960   -2.5450 c         1 MOL      0.700048
     47 O7          4.6340   -0.6100   -1.9150 o         1 MOL     -0.734588
     48 O8          2.9740   -1.8010   -2.5710 o         1 MOL     -0.734588
     49 H21         3.7180   -3.3310   -0.7800 hn        1 MOL      0.199426
     50 H22         5.9840   -4.3700   -2.4620 h1        1 MOL      0.113516
     51 H23         4.7640   -3.3300   -3.8290 hc        1 MOL      0.101766
     52 H24         6.0190   -2.3000   -3.4740 hc        1 MOL      0.101766
     53 N5          6.3040   -2.3570    0.1480 n         1 MOL     -0.110554
     54 C17         7.1890   -1.5700    1.0470 c3        1 MOL     -0.345790
     55 C18         7.4720   -0.1200    0.6730 c         1 MOL      0.570094
     56 O9          8.3080    0.5380    1.2260 o         1 MOL     -0.548861
     57 H25         5.3200   -2.1910    0.3510 hn        1 MOL      0.086286
     58 H26         8.1280   -2.1110    1.1170 h1        1 MOL      0.165930
     59 H27         6.8060   -1.5250    2.0630 h1        1 MOL      0.165930
     60 N6          6.8380    0.3610   -0.4080 n         1 MOL     -0.149492
     61 C19         6.9390    1.7440   -0.8700 c3        1 MOL     -0.059019
     62 C20         5.7160    2.5920   -0.4550 c         1 MOL      0.521861
     63 O10         4.6420    2.0610   -0.3860 o         1 MOL     -0.465414
     64 C21         7.1380    1.6930   -2.4180 c3        1 MOL     -0.209910
     65 C22         8.4470    0.9530   -2.7750 c         1 MOL      0.686028
     66 N7          8.3470   -0.0010   -3.7420 n         1 MOL     -0.866993
     67 O11         9.4920    1.2920   -2.2840 o         1 MOL     -0.495404
     68 H28         6.1900   -0.2350   -0.8960 hn        1 MOL      0.231303
     69 H29         7.8690    2.1410   -0.4690 h1        1 MOL      0.060506
     70 H30         7.1010    2.7070   -2.8260 hc        1 MOL      0.022243
     71 H31         6.3100    1.1620   -2.8720 hc        1 MOL      0.022243
     72 H32         7.5060   -0.1310   -4.2910 hn        1 MOL      0.386452
     73 H33         9.1610   -0.5520   -3.9690 hn        1 MOL      0.386452
     74 N8          5.9320    3.8900   -0.3990 n         1 MOL     -0.351283
     75 C23         4.9950    5.0570   -0.3340 c3        1 MOL     -0.185074
     76 C24         3.8400    4.9380    0.6110 c         1 MOL      0.594653
     77 O12         4.0240    4.6030    1.8210 o         1 MOL     -0.489840
     78 H34         6.9180    4.0920   -0.5010 hn        1 MOL      0.308618
     79 H35         4.5050    5.2320   -1.2940 h1        1 MOL      0.106025
     80 H36         5.5460    5.9560   -0.0490 h1        1 MOL      0.106025
     81 N9          2.5980    5.2190    0.2230 n         1 MOL     -0.505650
     82 C25         1.3310    5.0100    0.9830 c3        1 MOL     -0.058486
     83 C26         1.1440    3.5020    1.3680 c         1 MOL      0.579095
     84 O13         2.0020    2.6340    0.9580 o         1 MOL     -0.574036
     85 C27         0.1480    5.3650    0.0980 c3        1 MOL     -0.007689
     86 C28        -0.0610    6.7880   -0.3910 ca        1 MOL     -0.091716
     87 C29        -0.0870    7.8530    0.5280 ca        1 MOL     -0.019442
     88 C30        -0.4300    6.9940   -1.6940 ca        1 MOL     -0.019442
     89 C31        -0.2980    9.1770    0.0300 ca        1 MOL     -0.374760
     90 C32        -0.7300    8.2510   -2.2000 ca        1 MOL     -0.374760
     91 C33        -0.7720    9.3550   -1.3110 ca        1 MOL      0.435935
     92 O14        -1.1170   10.5390   -1.8220 oh        1 MOL     -0.463500
     93 H37         2.4870    5.4730   -0.7480 hn        1 MOL      0.295011
     94 H38         1.2270    5.6520    1.8540 h1        1 MOL      0.124400
     95 H39        -0.7330    5.0720    0.6690 hc        1 MOL      0.026926
     96 H40         0.0750    4.6110   -0.6820 hc        1 MOL      0.026926
     97 H41         0.1650    7.6800    1.5650 ha        1 MOL      0.097308
     98 H42        -0.3060    6.1530   -2.3610 ha        1 MOL      0.097308
     99 H43        -0.1150   10.0230    0.6670 ha        1 MOL      0.182889
    100 H44        -1.0000    8.4300   -3.2260 ha        1 MOL      0.182889
    101 H45        -0.7510   11.2170   -1.2510 ho        1 MOL      0.359603
    102 N10         0.1520    3.1670    2.2120 n         1 MOL     -0.581066
    103 C34        -0.2000    1.8590    2.7560 c3        1 MOL      0.032984
    104 C35        -0.3120    0.7700    1.6860 c         1 MOL      0.489818
    105 O15         0.6800    0.2750    1.1700 o         1 MOL     -0.478619
    106 C36         0.8730    1.4120    3.7840 c3        1 MOL      0.391889
    107 C37         0.5150    0.1970    4.6850 c3        1 MOL     -0.075837
    108 C38         1.3620    2.6150    4.6500 c3        1 MOL     -0.517404
    109 C39        -0.6140    0.5200    5.7340 c3        1 MOL     -0.249128
    110 H46        -0.3770    3.9670    2.5520 hn        1 MOL      0.323769
    111 H47        -1.1380    1.8200    3.3170 h1        1 MOL      0.057284
    112 H48         1.6890    1.0090    3.1930 hc        1 MOL      0.006031
    113 H49         1.4450    0.0690    5.2360 hc        1 MOL      0.059952
    114 H50         0.2410   -0.6450    4.0580 hc        1 MOL      0.059952
    115 H51         2.0360    2.2210    5.4120 hc        1 MOL      0.130458
    116 H52         1.9680    3.2440    3.9950 hc        1 MOL      0.130458
    117 H53         0.5390    3.1900    5.0710 hc        1 MOL      0.130458
    118 H54        -0.9220   -0.4540    6.1090 hc        1 MOL      0.059681
    119 H55        -0.3110    1.2530    6.4830 hc        1 MOL      0.059681
    120 H56        -1.4420    0.9350    5.1560 hc        1 MOL      0.059681
    121 N11        -1.5400    0.3220    1.5170 n         1 MOL     -0.495433
    122 C40        -1.9210   -0.7650    0.5630 c3        1 MOL      0.072584
    123 C41        -3.3750   -0.7700    0.1650 c         1 MOL      0.618048
    124 O16        -3.7980   -1.6350   -0.6020 o         1 MOL     -0.532698
    125 C42        -1.5000   -2.1730    1.0770 c3        1 MOL      0.052293
    126 O17        -0.9110   -3.0390    0.1810 oh        1 MOL     -0.629586
    127 H57        -2.3300    0.7560    1.9610 hn        1 MOL      0.276847
    128 H58        -1.3430   -0.5550   -0.3390 h1        1 MOL      0.098419
    129 H59        -2.4200   -2.6860    1.3630 h1        1 MOL      0.065710
    130 H60        -0.8440   -1.9800    1.9220 h1        1 MOL      0.065710
    131 H61        -1.0030   -3.8970    0.5820 ho        1 MOL      0.457536
    132 N12        -4.1770    0.1770    0.6280 n         1 MOL     -0.636281
    133 C43        -5.5180    0.2800    0.1280 c3        1 MOL      0.212763
    134 C44        -5.6710    0.9560   -1.1960 c         1 MOL      0.558759
    135 O18        -4.8170    1.7070   -1.6750 o         1 MOL     -0.568381
    136 C45        -6.4200    0.9650    1.2210 c3        1 MOL     -0.278641
    137 H62        -3.8390    0.8020    1.3360 hn        1 MOL      0.317849
    138 H63        -5.8370   -0.7620    0.0670 h1        1 MOL      0.112030
    139 H64        -6.5590    0.2080    1.9970 hc        1 MOL      0.089618
    140 H65        -5.9490    1.8670    1.6050 hc        1 MOL      0.089618
    141 H66        -7.4190    1.2280    0.8820 hc        1 MOL      0.089618
    142 N13        -6.6630    0.5960   -2.0170 n         1 MOL     -0.621446
    143 C46        -7.8010   -0.2670   -1.6590 c3        1 MOL      0.426291
    144 C47        -9.1330    0.3140   -2.0760 c         1 MOL      0.396354
    145 O19        -9.2060    0.9520   -3.1300 o         1 MOL     -0.550536
    146 C48        -7.6530   -1.7760   -2.1360 c3        1 MOL     -0.311961
    147 H67        -6.6590    1.0080   -2.9380 hn        1 MOL      0.342377
    148 H68        -7.8590   -0.3950   -0.5820 h1        1 MOL     -0.065590
    149 H69        -6.7540   -2.1510   -1.6510 hc        1 MOL      0.092321
    150 H70        -8.4510   -2.3980   -1.7480 hc        1 MOL      0.092321
    151 H71        -7.5730   -1.8980   -3.2170 hc        1 MOL      0.092321
    152 N14       -10.3190   -0.0400   -1.5740 n         1 MOL     -0.460517
    153 C49       -10.5480   -0.6500   -0.2330 c3        1 MOL     -0.167839
    154 C50       -10.2630    0.4500    0.8440 c         1 MOL      0.419211
    155 O20        -9.7360    0.0780    1.9570 o         1 MOL     -0.516812
    156 C51       -11.9970   -1.1740   -0.1710 c3        1 MOL      0.099347
    157 C52       -12.1920   -2.4000   -1.1250 c3        1 MOL      0.036019
    158 C53       -13.4410   -3.2200   -0.8300 c         1 MOL      0.664645
    159 O21       -13.9190   -3.9770   -1.7350 o         1 MOL     -0.662605
    160 O22       -13.9170   -3.1000    0.3140 o         1 MOL     -0.662605
    161 H72       -11.1100    0.3380   -2.0530 hn        1 MOL      0.368017
    162 H73        -9.9340   -1.5180    0.0020 h1        1 MOL      0.156060
    163 H74       -12.6600   -0.4090   -0.5770 hc        1 MOL     -0.006707
    164 H75       -12.2810   -1.4840    0.8410 hc        1 MOL     -0.006707
    165 H76       -11.3900   -3.1460   -1.1400 hc        1 MOL     -0.045325
    166 H77       -12.2960   -2.1030   -2.1640 hc        1 MOL     -0.045325
    167 N15       -10.4950    1.7290    0.5100 n         1 MOL     -0.273408
    168 C54        -9.9940    2.9130    1.2710 c3        1 MOL     -0.142970
    169 H78        -9.4090    3.5500    0.6080 h1        1 MOL      0.092684
    170 H79       -10.8410    3.4790    1.6620 h1        1 MOL      0.092684
    171 H80        -9.3680    2.5770    2.0970 h1        1 MOL      0.092684
    172 H81       -10.8940    1.7560   -0.4120 hn        1 MOL      0.238197
    173 Ca1         2.5390    0.5440   -0.8270 Ca        1 MOL      1.738381
    174 O23         2.9410    1.7000   -3.1610 oh        1 MOL     -0.819802
    175 H82         3.6340    2.3590   -3.2310 ho        1 MOL      0.416016
    176 H83         3.1950    1.0240   -3.7840 ho        1 MOL      0.416016
    177 O24         0.5750   -1.2140   -1.6910 oh        1 MOL     -0.819802
    178 H84         0.4120   -1.7260   -0.9020 ho        1 MOL      0.416016
    179 H85         1.2130   -1.7330   -2.1810 ho        1 MOL      0.416016
    180 O25         0.4600    1.8920   -1.7700 oh        1 MOL     -0.819802
    181 H86        -0.5000    1.8560   -1.7150 ho        1 MOL      0.416016
    182 H87         0.6380    2.6170   -2.3570 ho        1 MOL      0.416016
@<TRIPOS>BOND
     1    1    2 1   
     2    1    4 1   
     3    1    5 1   
     4    1    6 1   
     5    2    3 2   
     6    2    7 1   
     7    7    8 1   
     8    7   15 1   
     9    8    9 1   
    10    8   11 1   
    11    8   16 1   
    12    9   10 2   
    13    9   19 1   
    14   11   12 1   
    15   11   17 1   
    16   11   18 1   
    17   12   13 1   
    18   12   14 1   
    19   19   20 1   
    20   19   28 1   
    21   20   21 1   
    22   20   23 1   
    23   20   29 1   
    24   21   22 2   
    25   21   41 1   
    26   23   24 1   
    27   23   30 1   
    28   23   31 1   
    29   24   25 1   
    30   24   32 1   
    31   24   33 1   
    32   25   26 1   
    33   25   34 1   
    34   25   35 1   
    35   26   27 1   
    36   26   36 1   
    37   26   37 1   
    38   27   38 1   
    39   27   39 1   
    40   27   40 1   
    41   41   42 1   
    42   41   49 1   
    43   42   43 1   
    44   42   45 1   
    45   42   50 1   
    46   43   44 2   
    47   43   53 1   
    48   45   46 1   
    49   45   51 1   
    50   45   52 1   
    51   46   47 1   
    52   46   48 1   
    53   53   54 1   
    54   53   57 1   
    55   54   55 1   
    56   54   58 1   
    57   54   59 1   
    58   55   56 2   
    59   55   60 1   
    60   60   61 1   
    61   60   68 1   
    62   61   62 1   
    63   61   64 1   
    64   61   69 1   
    65   62   63 2   
    66   62   74 1   
    67   64   65 1   
    68   64   70 1   
    69   64   71 1   
    70   65   66 1   
    71   65   67 2   
    72   66   72 1   
    73   66   73 1   
    74   74   75 1   
    75   74   78 1   
    76   75   76 1   
    77   75   79 1   
    78   75   80 1   
    79   76   77 2   
    80   76   81 1   
    81   81   82 1   
    82   81   93 1   
    83   82   83 1   
    84   82   85 1   
    85   82   94 1   
    86   83   84 2   
    87   83  102 1   
    88   85   86 1   
    89   85   95 1   
    90   85   96 1   
    91   86   87 ar  
    92   86   88 ar  
    93   87   89 ar  
    94   87   97 1   
    95   88   90 ar  
    96   88   98 1   
    97   89   91 ar  
    98   89   99 1   
    99   90   91 ar  
   100   90  100 1   
   101   91   92 1   
   102   92  101 1   
   103  102  103 1   
   104  102  110 1   
   105  103  104 1   
   106  103  106 1   
   107  103  111 1   
   108  104  105 2   
   109  104  121 1   
   110  106  107 1   
   111  106  108 1   
   112  106  112 1   
   113  107  109 1   
   114  107  113 1   
   115  107  114 1   
   116  108  115 1   
   117  108  116 1   
   118  108  117 1   
   119  109  118 1   
   120  109  119 1   
   121  109  120 1   
   122  121  122 1   
   123  121  127 1   
   124  122  123 1   
   125  122  125 1   
   126  122  128 1   
   127  123  124 2   
   128  123  132 1   
   129  125  126 1   
   130  125  129 1   
   131  125  130 1   
   132  126  131 1   
   133  132  133 1   
   134  132  137 1   
   135  133  134 1   
   136  133  136 1   
   137  133  138 1   
   138  134  135 2   
   139  134  142 1   
   140  136  139 1   
   141  136  140 1   
   142  136  141 1   
   143  142  143 1   
   144  142  147 1   
   145  143  144 1   
   146  143  146 1   
   147  143  148 1   
   148  144  145 2   
   149  144  152 1   
   150  146  149 1   
   151  146  150 1   
   152  146  151 1   
   153  152  153 1   
   154  152  161 1   
   155  153  154 1   
   156  153  156 1   
   157  153  162 1   
   158  154  155 2   
   159  154  167 1   
   160  156  157 1   
   161  156  163 1   
   162  156  164 1   
   163  157  158 1   
   164  157  165 1   
   165  157  166 1   
   166  158  159 1   
   167  158  160 1   
   168  167  168 1   
   169  167  172 1   
   170  168  169 1   
   171  168  170 1   
   172  168  171 1   
   173  174  175 1   
   174  174  176 1   
   175  177  178 1   
   176  177  179 1   
   177  180  181 1   
   178  180  182 1   
@<TRIPOS>SUBSTRUCTURE
     1 MOL         1 TEMP              0 ****  ****    0 ROOT
