@<TRIPOS>MOLECULE
MOL
  191   184     1     0     0
SMALL
resp


@<TRIPOS>ATOM
      1 C1         -4.6230    1.8400   -3.1620 c3        1 MOL     -0.456009
      2 C2         -5.5050    2.2740   -1.9990 c         1 MOL      0.785549
      3 O1         -5.6290    1.6120   -1.0150 o         1 MOL     -0.538499
      4 H1         -5.0540    0.9590   -3.6360 hc        1 MOL      0.107490
      5 H2         -4.5570    2.6490   -3.8900 hc        1 MOL      0.107490
      6 H3         -3.6250    1.6030   -2.7920 hc        1 MOL      0.107490
      7 N1         -6.4110    3.2160   -2.2000 n         1 MOL     -0.602125
      8 C3         -7.4090    3.6310   -1.1400 c3        1 MOL      0.003979
      9 C4         -8.2730    2.4950   -0.5850 c         1 MOL      0.535720
     10 O2         -8.6980    2.5030    0.5960 o         1 MOL     -0.502488
     11 C5         -6.7270    4.4350   -0.0250 c3        1 MOL     -0.154155
     12 C6         -5.7450    5.5290   -0.3980 c         1 MOL      0.702691
     13 O3         -5.4980    5.8180   -1.5920 o         1 MOL     -0.675543
     14 O4         -5.1150    6.0680    0.5520 o         1 MOL     -0.675543
     15 H4         -6.3290    3.8120   -3.0090 hn        1 MOL      0.324125
     16 H5         -8.1070    4.3570   -1.5730 h1        1 MOL      0.096093
     17 H6         -6.1530    3.7240    0.5620 hc        1 MOL      0.063408
     18 H7         -7.4300    4.9260    0.6460 hc        1 MOL      0.063408
     19 N2         -8.6250    1.4480   -1.3630 n         1 MOL     -0.511681
     20 C7         -9.2270    0.1920   -0.8970 c3        1 MOL     -0.024840
     21 C8         -8.4300   -0.8040   -0.0600 c         1 MOL      0.481642
     22 O5         -9.0140   -1.8030    0.4610 o         1 MOL     -0.592513
     23 C9         -9.8300   -0.5680   -2.0840 c3        1 MOL      0.061880
     24 C10        -8.7250   -1.2880   -2.8510 c3        1 MOL      0.076264
     25 C11        -9.1680   -1.6760   -4.2480 c3        1 MOL     -0.139248
     26 C12       -10.1570   -2.9070   -4.2620 c3        1 MOL     -0.044309
     27 N3         -9.3840   -4.1790   -3.9830 n4        1 MOL     -0.179147
     28 H8         -8.3500    1.5640   -2.3360 hn        1 MOL      0.262324
     29 H9        -10.1150    0.4400   -0.3190 h1        1 MOL      0.123196
     30 H10       -10.3750    0.1180   -2.7250 hc        1 MOL      0.014827
     31 H11       -10.6400   -1.2250   -1.7480 hc        1 MOL      0.014827
     32 H12        -8.3770   -2.2010   -2.3740 hc        1 MOL     -0.010412
     33 H13        -7.9880   -0.4860   -2.9540 hc        1 MOL     -0.010412
     34 H14        -8.3220   -1.9230   -4.8930 hc        1 MOL      0.062486
     35 H15        -9.6250   -0.7750   -4.6700 hc        1 MOL      0.062486
     36 H16       -10.6390   -2.9620   -5.2410 hx        1 MOL      0.098318
     37 H17       -11.0030   -2.6700   -3.6200 hx        1 MOL      0.098318
     38 H18        -9.0020   -4.2050   -3.0480 hn        1 MOL      0.220653
     39 H19        -9.9530   -5.0020   -4.1230 hn        1 MOL      0.220653
     40 H20        -8.5990   -4.2690   -4.6180 hn        1 MOL      0.220653
     41 N4         -7.1410   -0.5690    0.1040 n         1 MOL     -0.234636
     42 C13        -6.1080   -1.5050    0.6850 c3        1 MOL      0.030137
     43 C14        -5.6700   -1.2740    2.1790 c         1 MOL      0.566481
     44 O6         -5.7460   -0.1480    2.6710 o         1 MOL     -0.470844
     45 C15        -4.9700   -1.5080   -0.3180 c3        1 MOL     -0.159079
     46 C16        -4.0310   -2.6590   -0.0500 c         1 MOL      1.047159
     47 O7         -4.2030   -3.8320   -0.4830 o         1 MOL     -0.913912
     48 O8         -3.0590   -2.4260    0.6210 o         1 MOL     -0.913912
     49 H21        -6.8300    0.3500   -0.1820 hn        1 MOL      0.217851
     50 H22        -6.5310   -2.5060    0.6560 h1        1 MOL      0.007201
     51 H23        -4.4000   -0.5840   -0.2990 hc        1 MOL      0.018696
     52 H24        -5.2870   -1.6470   -1.3580 hc        1 MOL      0.018696
     53 N5         -5.2120   -2.3680    2.8130 n         1 MOL     -0.486639
     54 C17        -4.7170   -2.4420    4.1770 c3        1 MOL     -0.020632
     55 C18        -3.3560   -1.7910    4.4410 c         1 MOL      0.492097
     56 O9         -3.3230   -1.1890    5.5040 o         1 MOL     -0.489858
     57 H25        -5.2850   -3.2170    2.2640 hn        1 MOL      0.310341
     58 H26        -4.6270   -3.5070    4.4060 h1        1 MOL      0.073118
     59 H27        -5.4410   -2.0340    4.8870 h1        1 MOL      0.073118
     60 N6         -2.2970   -1.9400    3.5470 n         1 MOL     -0.447924
     61 C19        -0.9230   -1.3510    3.8180 c3        1 MOL     -0.102274
     62 C20        -0.9270    0.1330    4.2200 c         1 MOL      0.481358
     63 O10        -0.0480    0.5560    4.9670 o         1 MOL     -0.499361
     64 C21         0.0530   -1.7020    2.7400 c3        1 MOL     -0.360420
     65 C22         0.2360   -3.1790    2.5600 c         1 MOL      0.586351
     66 N7          0.7230   -3.9080    3.5460 n         1 MOL     -0.736083
     67 O11        -0.2950   -3.8250    1.6690 o         1 MOL     -0.557638
     68 H28        -2.4060   -2.4750    2.6970 hn        1 MOL      0.377679
     69 H29        -0.5910   -1.7880    4.7720 h1        1 MOL      0.120758
     70 H30         1.0270   -1.2440    2.8850 hc        1 MOL      0.197002
     71 H31        -0.3290   -1.3130    1.7990 hc        1 MOL      0.197002
     72 H32         1.4090   -3.4710    4.1570 hn        1 MOL      0.369245
     73 H33         0.8940   -4.8870    3.3920 hn        1 MOL      0.369245
     74 N8         -1.8530    0.9690    3.7110 n         1 MOL     -0.079373
     75 C23        -1.8720    2.3870    4.0330 c3        1 MOL     -0.249038
     76 C24        -1.0090    3.2350    3.1170 c         1 MOL      0.539335
     77 O12        -0.6930    4.4340    3.3160 o         1 MOL     -0.547505
     78 H34        -2.6860    0.6640    3.2270 hn        1 MOL      0.220968
     79 H35        -1.5780    2.6220    5.0520 h1        1 MOL      0.139146
     80 H36        -2.8420    2.8250    3.8470 h1        1 MOL      0.139146
     81 N9         -0.5020    2.6720    2.0090 n         1 MOL     -0.301041
     82 C25         0.2070    3.3950    0.9500 c3        1 MOL      0.057117
     83 C26         1.0430    2.4690    0.1600 c         1 MOL      0.753413
     84 O13         0.8710    1.2510    0.2350 o         1 MOL     -0.564318
     85 C27        -0.8110    4.2080    0.1020 c3        1 MOL     -0.376701
     86 C28        -0.0900    5.3630   -0.5910 ca        1 MOL      0.062970
     87 C29         0.2610    6.4760    0.1710 ca        1 MOL     -0.038926
     88 C30         0.1470    5.3350   -1.9370 ca        1 MOL     -0.038926
     89 C31         0.7140    7.6520   -0.5000 ca        1 MOL     -0.397380
     90 C32         0.6630    6.4240   -2.6520 ca        1 MOL     -0.397380
     91 C33         1.0020    7.6290   -1.8470 ca        1 MOL      0.444877
     92 O14         1.5680    8.6040   -2.5840 oh        1 MOL     -0.527332
     93 H37        -0.5990    1.6630    1.9690 hn        1 MOL      0.118332
     94 H38         0.8330    4.1470    1.4220 h1        1 MOL     -0.007303
     95 H39        -1.5680    4.6840    0.7310 hc        1 MOL      0.172840
     96 H40        -1.3380    3.5840   -0.6170 hc        1 MOL      0.172840
     97 H41         0.0190    6.4470    1.2220 ha        1 MOL      0.132258
     98 H42        -0.1780    4.5260   -2.5800 ha        1 MOL      0.132258
     99 H43         0.8230    8.5850    0.0530 ha        1 MOL      0.190098
    100 H44         0.9380    6.4030   -3.7000 ha        1 MOL      0.190098
    101 H45         1.7440    8.3320   -3.4780 ho        1 MOL      0.375896
    102 N10         1.8970    2.9450   -0.7540 n         1 MOL     -0.624195
    103 C34         3.0020    2.1270   -1.4110 c3        1 MOL     -0.100849
    104 C35         4.1040    1.8580   -0.3880 c         1 MOL      0.446552
    105 O15         4.6780    0.7280   -0.4010 o         1 MOL     -0.493560
    106 C36         3.5010    2.6780   -2.7050 c3        1 MOL      0.091448
    107 C37         2.3300    2.6610   -3.7650 c3        1 MOL     -0.018089
    108 C38         4.6290    1.8960   -3.3290 c3        1 MOL     -0.451869
    109 C39         2.5730    3.2000   -5.2410 c3        1 MOL     -0.111095
    110 H46         1.8840    3.9520   -0.7910 hn        1 MOL      0.222529
    111 H47         2.5890    1.1290   -1.5830 h1        1 MOL      0.148816
    112 H48         3.7880    3.7190   -2.5910 hc        1 MOL      0.024228
    113 H49         1.5850    3.3470   -3.3740 hc        1 MOL      0.035143
    114 H50         1.8550    1.6830   -3.8680 hc        1 MOL      0.035143
    115 H51         5.0010    2.4030   -4.2150 hc        1 MOL      0.143239
    116 H52         5.4600    1.8490   -2.6190 hc        1 MOL      0.143239
    117 H53         4.2690    0.8840   -3.5080 hc        1 MOL      0.143239
    118 H54         3.5270    3.7370   -5.2660 hc        1 MOL      0.022449
    119 H55         2.6160    2.3840   -5.9740 hc        1 MOL      0.022449
    120 H56         1.8230    3.9560   -5.4660 hc        1 MOL      0.022449
    121 N11         4.4150    2.9010    0.3940 n         1 MOL     -0.287128
    122 C40         5.0800    2.7220    1.7450 c3        1 MOL      0.066911
    123 C41         6.6120    2.6880    1.8750 c         1 MOL      0.285681
    124 O16         7.1430    2.2920    2.9060 o         1 MOL     -0.436420
    125 C42         4.4290    3.6810    2.7750 c3        1 MOL      0.153111
    126 O17         2.9920    3.5750    2.7480 oh        1 MOL     -0.546439
    127 H57         4.0470    3.8220    0.1860 hn        1 MOL      0.268989
    128 H58         4.8000    1.7170    2.0550 h1        1 MOL      0.124289
    129 H59         4.7220    4.6530    2.3860 h1        1 MOL      0.020127
    130 H60         4.8540    3.4920    3.7600 h1        1 MOL      0.020127
    131 H61         2.6890    4.4420    3.0230 ho        1 MOL      0.397493
    132 N12         7.2150    3.2000    0.7920 n         1 MOL     -0.246600
    133 C43         8.6970    2.9820    0.4970 c3        1 MOL      0.261121
    134 C44         9.2240    1.5610    0.9250 c         1 MOL      0.391634
    135 O18        10.2340    1.4200    1.6250 o         1 MOL     -0.484611
    136 C45         9.4600    4.2430    1.0070 c3        1 MOL     -0.388329
    137 H62         6.6710    3.6740    0.0890 hn        1 MOL      0.180952
    138 H63         8.7300    3.0300   -0.5870 h1        1 MOL      0.021900
    139 H64        10.4370    4.2880    0.5340 hc        1 MOL      0.107578
    140 H65         8.9080    5.1210    0.6920 hc        1 MOL      0.107578
    141 H66         9.5430    4.2870    2.0970 hc        1 MOL      0.107578
    142 N13         8.4880    0.4420    0.6600 n         1 MOL     -0.488742
    143 C46         8.9280   -0.9300    0.9750 c3        1 MOL      0.289544
    144 C47         8.5170   -1.9090   -0.1260 c         1 MOL      0.465820
    145 O19         7.4300   -1.7240   -0.7310 o         1 MOL     -0.459779
    146 C48         8.3650   -1.3240    2.3620 c3        1 MOL     -0.172601
    147 H67         7.6100    0.6620    0.2050 hn        1 MOL      0.209239
    148 H68        10.0160   -0.8960    0.9910 h1        1 MOL     -0.006433
    149 H69         8.6210   -0.5470    3.0720 hc        1 MOL      0.056313
    150 H70         7.3070   -1.5470    2.4180 hc        1 MOL      0.056313
    151 H71         8.8660   -2.2300    2.6940 hc        1 MOL      0.056313
    152 N14         9.4060   -2.8480   -0.4350 n         1 MOL     -0.401498
    153 C49         9.2220   -3.8490   -1.4810 c3        1 MOL      0.004391
    154 C50         9.1200   -3.2780   -2.9640 c         1 MOL      0.390232
    155 O20         8.4570   -3.8240   -3.8990 o         1 MOL     -0.425490
    156 C51         8.1550   -4.9810   -1.0660 c3        1 MOL      0.017105
    157 C52         6.7140   -4.5700   -1.2790 c3        1 MOL     -0.184132
    158 C53         5.8210   -5.7760   -1.5440 c         1 MOL      0.709618
    159 O21         5.3070   -5.9820   -2.7300 o         1 MOL     -0.666342
    160 O22         5.4890   -6.5290   -0.5570 o         1 MOL     -0.666342
    161 H72        10.3010   -2.8630    0.0310 hn        1 MOL      0.279617
    162 H73        10.1940   -4.3100   -1.3730 h1        1 MOL      0.051078
    163 H74         8.2470   -5.0900    0.0190 hc        1 MOL      0.001910
    164 H75         8.3190   -5.9510   -1.5300 hc        1 MOL      0.001910
    165 H76         6.5990   -3.8650   -2.0980 hc        1 MOL      0.050093
    166 H77         6.4100   -4.2160   -0.2990 hc        1 MOL      0.050093
    167 N15         9.8470   -2.1400   -3.2760 n         1 MOL     -0.272084
    168 C54         9.6260   -1.3660   -4.4340 c3        1 MOL     -0.204490
    169 H78        10.0800   -0.3840   -4.3070 h1        1 MOL      0.097159
    170 H79        10.0730   -1.8640   -5.2950 h1        1 MOL      0.097159
    171 H80         8.5540   -1.2520   -4.5970 h1        1 MOL      0.097159
    172 H81        10.4050   -1.7560   -2.5290 hn        1 MOL      0.216825
    173 Ca1        -1.8340   -4.9370    0.0250 Ca        1 MOL      1.698673
    174 O23        -1.0470   -7.2150    1.0990 oh        1 MOL     -0.795122
    175 H82        -0.3970   -7.4810    1.7510 ho        1 MOL      0.393296
    176 H83        -1.3820   -8.0290    0.7420 ho        1 MOL      0.393296
    177 O24        -0.9560   -2.9910   -1.5760 oh        1 MOL     -0.795122
    178 H84        -0.3390   -2.5440   -0.9920 ho        1 MOL      0.393296
    179 H85        -0.6390   -2.7910   -2.4500 ho        1 MOL      0.393296
    180 O25        -1.7640   -6.7940   -1.9430 oh        1 MOL     -0.795122
    181 H86        -1.5190   -6.3560   -2.7590 ho        1 MOL      0.393296
    182 H87        -2.5200   -7.3260   -2.1710 ho        1 MOL      0.393296
    183 O26        -4.0100   -6.8100    0.0840 oh        1 MOL     -0.795122
    184 H88        -3.9280   -7.6030    0.6070 ho        1 MOL      0.393296
    185 H89        -4.2920   -7.1210   -0.7760 ho        1 MOL      0.393296
    186 O27         0.7050   -5.4740   -1.1430 oh        1 MOL     -0.795122
    187 H90         1.4330   -5.0960   -1.6410 ho        1 MOL      0.393296
    188 H91         0.9600   -6.3800   -0.9990 ho        1 MOL      0.393296
    189 O28        -2.7720   -5.0010    2.4700 oh        1 MOL     -0.795122
    190 H92        -2.3580   -4.8190    3.3150 ho        1 MOL      0.393296
    191 H93        -3.4760   -5.6110    2.6860 ho        1 MOL      0.393296
@<TRIPOS>BOND
     1    1    2 1   
     2    1    4 1   
     3    1    5 1   
     4    1    6 1   
     5    2    3 2   
     6    2    7 1   
     7    7    8 1   
     8    7   15 1   
     9    8    9 1   
    10    8   11 1   
    11    8   16 1   
    12    9   10 2   
    13    9   19 1   
    14   11   12 1   
    15   11   17 1   
    16   11   18 1   
    17   12   13 1   
    18   12   14 1   
    19   19   20 1   
    20   19   28 1   
    21   20   21 1   
    22   20   23 1   
    23   20   29 1   
    24   21   22 2   
    25   21   41 1   
    26   23   24 1   
    27   23   30 1   
    28   23   31 1   
    29   24   25 1   
    30   24   32 1   
    31   24   33 1   
    32   25   26 1   
    33   25   34 1   
    34   25   35 1   
    35   26   27 1   
    36   26   36 1   
    37   26   37 1   
    38   27   38 1   
    39   27   39 1   
    40   27   40 1   
    41   41   42 1   
    42   41   49 1   
    43   42   43 1   
    44   42   45 1   
    45   42   50 1   
    46   43   44 2   
    47   43   53 1   
    48   45   46 1   
    49   45   51 1   
    50   45   52 1   
    51   46   47 1   
    52   46   48 1   
    53   53   54 1   
    54   53   57 1   
    55   54   55 1   
    56   54   58 1   
    57   54   59 1   
    58   55   56 2   
    59   55   60 1   
    60   60   61 1   
    61   60   68 1   
    62   61   62 1   
    63   61   64 1   
    64   61   69 1   
    65   62   63 2   
    66   62   74 1   
    67   64   65 1   
    68   64   70 1   
    69   64   71 1   
    70   65   66 1   
    71   65   67 2   
    72   66   72 1   
    73   66   73 1   
    74   74   75 1   
    75   74   78 1   
    76   75   76 1   
    77   75   79 1   
    78   75   80 1   
    79   76   77 2   
    80   76   81 1   
    81   81   82 1   
    82   81   93 1   
    83   82   83 1   
    84   82   85 1   
    85   82   94 1   
    86   83   84 2   
    87   83  102 1   
    88   85   86 1   
    89   85   95 1   
    90   85   96 1   
    91   86   87 ar  
    92   86   88 ar  
    93   87   89 ar  
    94   87   97 1   
    95   88   90 ar  
    96   88   98 1   
    97   89   91 ar  
    98   89   99 1   
    99   90   91 ar  
   100   90  100 1   
   101   91   92 1   
   102   92  101 1   
   103  102  103 1   
   104  102  110 1   
   105  103  104 1   
   106  103  106 1   
   107  103  111 1   
   108  104  105 2   
   109  104  121 1   
   110  106  107 1   
   111  106  108 1   
   112  106  112 1   
   113  107  109 1   
   114  107  113 1   
   115  107  114 1   
   116  108  115 1   
   117  108  116 1   
   118  108  117 1   
   119  109  118 1   
   120  109  119 1   
   121  109  120 1   
   122  121  122 1   
   123  121  127 1   
   124  122  123 1   
   125  122  125 1   
   126  122  128 1   
   127  123  124 2   
   128  123  132 1   
   129  125  126 1   
   130  125  129 1   
   131  125  130 1   
   132  126  131 1   
   133  132  133 1   
   134  132  137 1   
   135  133  134 1   
   136  133  136 1   
   137  133  138 1   
   138  134  135 2   
   139  134  142 1   
   140  136  139 1   
   141  136  140 1   
   142  136  141 1   
   143  142  143 1   
   144  142  147 1   
   145  143  144 1   
   146  143  146 1   
   147  143  148 1   
   148  144  145 2   
   149  144  152 1   
   150  146  149 1   
   151  146  150 1   
   152  146  151 1   
   153  152  153 1   
   154  152  161 1   
   155  153  154 1   
   156  153  156 1   
   157  153  162 1   
   158  154  155 2   
   159  154  167 1   
   160  156  157 1   
   161  156  163 1   
   162  156  164 1   
   163  157  158 1   
   164  157  165 1   
   165  157  166 1   
   166  158  159 1   
   167  158  160 1   
   168  167  168 1   
   169  167  172 1   
   170  168  169 1   
   171  168  170 1   
   172  168  171 1   
   173  174  175 1   
   174  174  176 1   
   175  177  178 1   
   176  177  179 1   
   177  180  181 1   
   178  180  182 1   
   179  183  184 1   
   180  183  185 1   
   181  186  187 1   
   182  186  188 1   
   183  189  190 1   
   184  189  191 1   
@<TRIPOS>SUBSTRUCTURE
     1 MOL         1 TEMP              0 ****  ****    0 ROOT
