@<TRIPOS>MOLECULE
MOL
  178   175     1     0     0
SMALL
resp


@<TRIPOS>ATOM
      1 C1          2.2800   -3.4070    3.9040 c3        1 MOL     -0.283522
      2 C2          3.2430   -2.2800    3.4490 c         1 MOL      0.547365
      3 O1          3.2210   -1.8380    2.2510 o         1 MOL     -0.500908
      4 H1          2.1710   -3.3760    4.9880 hc        1 MOL      0.070730
      5 H2          1.3050   -3.2630    3.4380 hc        1 MOL      0.070730
      6 H3          2.6860   -4.3750    3.6080 hc        1 MOL      0.070730
      7 N1          4.0540   -1.8770    4.4300 n         1 MOL     -0.400818
      8 C3          5.0530   -0.8560    4.2040 c3        1 MOL      0.153174
      9 C4          6.0860   -1.3730    3.1410 c         1 MOL      0.341307
     10 O2          6.4100   -0.6920    2.2250 o         1 MOL     -0.415583
     11 C5          5.7460   -0.4120    5.4580 c3        1 MOL     -0.246434
     12 C6          6.8070    0.7350    5.2060 c         1 MOL      0.684802
     13 O3          6.4260    1.9570    5.2240 o         1 MOL     -0.696614
     14 O4          8.0170    0.4630    5.0030 o         1 MOL     -0.696614
     15 H4          3.8820   -2.1200    5.3950 hn        1 MOL      0.272123
     16 H5          4.5370    0.0210    3.8250 h1        1 MOL      0.057771
     17 H6          6.2590   -1.2520    5.9220 hc        1 MOL      0.008390
     18 H7          4.9380   -0.1150    6.1340 hc        1 MOL      0.008390
     19 N2          6.4240   -2.6540    3.1560 n         1 MOL     -0.286804
     20 C7          7.2860   -3.4110    2.1910 c3        1 MOL      0.346368
     21 C8          6.9030   -3.2660    0.6360 c         1 MOL      0.244382
     22 O5          7.7360   -3.4940   -0.2480 o         1 MOL     -0.477504
     23 C9          8.7900   -3.1780    2.4280 c3        1 MOL     -0.407978
     24 H8          6.0860   -3.1880    3.9540 hn        1 MOL      0.158316
     25 H9          7.0840   -4.4460    2.4280 h1        1 MOL     -0.010629
     26 H10         9.3760   -3.9030    1.8690 hc        1 MOL      0.106705
     27 H11         9.1120   -2.1850    2.0980 hc        1 MOL      0.106705
     28 H12         8.9860   -3.2050    3.5020 hc        1 MOL      0.106705
     29 N3          5.5800   -3.1160    0.3610 n         1 MOL     -0.294556
     30 C10         4.8970   -3.0560   -0.9150 c3        1 MOL      0.324192
     31 C11         5.4880   -1.8950   -1.7690 c         1 MOL      0.295475
     32 O6          5.6630   -2.0260   -2.9990 o         1 MOL     -0.478520
     33 C12         4.8060   -4.4400   -1.5330 c3        1 MOL     -0.149392
     34 C13         3.7330   -4.5040   -2.5770 c         1 MOL      0.760608
     35 O7          3.9850   -4.9370   -3.7370 o         1 MOL     -0.760176
     36 O8          2.5910   -4.1250   -2.2450 o         1 MOL     -0.760176
     37 H13         5.0260   -3.2440    1.2000 hn        1 MOL      0.181401
     38 H14         3.8860   -2.7470   -0.6460 h1        1 MOL     -0.020063
     39 H15         4.5340   -5.1580   -0.7650 hc        1 MOL      0.024308
     40 H16         5.8040   -4.7180   -1.8770 hc        1 MOL      0.024308
     41 N4          5.8040   -0.7500   -1.0780 n         1 MOL     -0.013895
     42 C14         6.5150    0.3450   -1.7630 c3        1 MOL     -0.107518
     43 C15         5.5690    1.3600   -2.4690 c         1 MOL      0.550510
     44 O9          6.0790    2.3520   -3.0230 o         1 MOL     -0.572704
     45 H17         5.7760   -0.6840   -0.0780 hn        1 MOL      0.084448
     46 H18         7.1820   -0.0110   -2.5470 h1        1 MOL      0.081606
     47 H19         7.1690    0.8000   -1.0200 h1        1 MOL      0.081606
     48 N5          4.2450    1.1320   -2.4070 n         1 MOL     -0.351695
     49 C16         3.3150    1.9610   -3.1420 c3        1 MOL      0.050932
     50 C17         3.1320    3.3970   -2.5140 c         1 MOL      0.569263
     51 O10         3.0150    3.4320   -1.2790 o         1 MOL     -0.509426
     52 C18         1.9340    1.2530   -3.2820 c3        1 MOL     -0.475466
     53 C19         2.0390   -0.1530   -3.8740 c         1 MOL      0.702264
     54 N6          2.9090   -0.3310   -4.8830 n         1 MOL     -0.803533
     55 O11         1.4180   -1.1840   -3.4990 o         1 MOL     -0.584865
     56 H20         3.9200    0.4330   -1.7570 hn        1 MOL      0.247821
     57 H21         3.7380    2.1650   -4.1300 h1        1 MOL     -0.008907
     58 H22         1.4390    1.9030   -3.9960 hc        1 MOL      0.198460
     59 H23         1.4670    1.1070   -2.3020 hc        1 MOL      0.198460
     60 H24         3.5100    0.4240   -5.1910 hn        1 MOL      0.380784
     61 H25         2.8530   -1.2260   -5.3300 hn        1 MOL      0.380784
     62 N7          2.9100    4.4660   -3.3300 n         1 MOL     -0.378522
     63 C20         2.8450    5.8600   -2.9760 c3        1 MOL     -0.308069
     64 C21         1.4390    6.4620   -2.6150 c         1 MOL      0.624552
     65 O12         0.4640    6.1580   -3.3060 o         1 MOL     -0.511134
     66 H26         2.9000    4.2650   -4.3220 hn        1 MOL      0.305974
     67 H27         3.2320    6.3530   -3.8640 h1        1 MOL      0.137343
     68 H28         3.4420    6.0700   -2.0940 h1        1 MOL      0.137343
     69 N8          1.4610    7.1700   -1.4730 n         1 MOL     -0.599011
     70 C22         0.2490    7.8430   -0.8670 c3        1 MOL     -0.086764
     71 C23        -0.7220    6.9110   -0.2060 c         1 MOL      0.459231
     72 O13        -1.8740    7.2740    0.0070 o         1 MOL     -0.549009
     73 C24         0.8590    8.7770    0.1910 c3        1 MOL      0.311717
     74 C25        -0.1450    9.7290    0.9060 c3        1 MOL     -0.302502
     75 O14         1.5200    7.9300    1.1280 oh        1 MOL     -0.597787
     76 H29         2.3120    7.2240   -0.9360 hn        1 MOL      0.315628
     77 H30        -0.2190    8.3710   -1.7000 h1        1 MOL      0.151723
     78 H31         1.5360    9.4870   -0.2830 h1        1 MOL      0.017420
     79 H32         1.9830    8.5390    1.7050 ho        1 MOL      0.395947
     80 H33        -0.6950   10.1810    0.0720 hc        1 MOL      0.078611
     81 H34        -0.7870    9.2050    1.6130 hc        1 MOL      0.078611
     82 H35         0.3700   10.5490    1.4060 hc        1 MOL      0.078611
     83 N9         -0.3170    5.6490    0.1460 n         1 MOL     -0.079330
     84 C26        -1.1600    4.5800    0.8290 c3        1 MOL     -0.045884
     85 C27        -1.3160    3.3840   -0.1070 c         1 MOL      0.345458
     86 O15        -0.8310    3.4120   -1.2890 o         1 MOL     -0.499085
     87 C28        -0.5040    4.1860    2.1820 c3        1 MOL      0.040058
     88 C29         0.8850    3.5020    1.9480 c3        1 MOL     -0.292915
     89 C30        -0.2500    5.4850    2.9190 c3        1 MOL     -0.234221
     90 C31         1.6190    3.1000    3.2330 c3        1 MOL     -0.419074
     91 H36         0.6710    5.4630    0.0580 hn        1 MOL      0.223562
     92 H37        -2.1640    4.9920    0.9500 h1        1 MOL      0.082586
     93 H38        -1.1170    3.4570    2.7130 hc        1 MOL      0.043528
     94 H39         1.5160    4.1490    1.3370 hc        1 MOL      0.201488
     95 H40         0.7420    2.5570    1.4230 hc        1 MOL      0.201488
     96 H41         0.0960    5.1290    3.8980 hc        1 MOL      0.063232
     97 H42         0.5710    6.0670    2.4980 hc        1 MOL      0.063232
     98 H43        -1.1590    6.0760    3.0490 hc        1 MOL      0.063232
     99 H44         0.9700    2.5390    3.9150 hc        1 MOL      0.128219
    100 H45         2.3920    2.3980    2.9360 hc        1 MOL      0.128219
    101 H46         2.0080    4.0220    3.6730 hc        1 MOL      0.128219
    102 N10        -1.9740    2.3620    0.3720 n         1 MOL     -0.366849
    103 C32        -2.0580    1.0150   -0.2220 c3        1 MOL      0.273138
    104 C33        -3.4700    0.4040   -0.0180 c         1 MOL      0.500801
    105 O16        -3.5780   -0.7830    0.1250 o         1 MOL     -0.452472
    106 C34        -0.8070    0.1890    0.1050 c3        1 MOL     -0.243570
    107 C35        -0.6220   -0.9550   -0.7960 c         1 MOL      0.796173
    108 O17         0.2870   -1.7630   -0.5420 o         1 MOL     -0.752662
    109 O18        -1.2310   -1.0370   -1.8810 o         1 MOL     -0.752662
    110 H47        -2.2970    2.5100    1.3170 hn        1 MOL      0.206211
    111 H48        -1.9780    1.1590   -1.2990 h1        1 MOL     -0.000158
    112 H49        -1.0220   -0.1230    1.1220 hc        1 MOL      0.040902
    113 H50         0.0510    0.8600   -0.0030 hc        1 MOL      0.040902
    114 N11        -4.5370    1.1720    0.0450 n         1 MOL     -0.444450
    115 C36        -5.9800    0.6970   -0.2380 c3        1 MOL      0.105617
    116 C37        -6.5700   -0.3160    0.7040 c         1 MOL      0.114673
    117 O19        -6.5510   -0.0390    1.9050 o         1 MOL     -0.432750
    118 C38        -7.0150    1.8260    0.0190 c3        1 MOL     -0.097627
    119 C39        -8.5160    1.4960   -0.1640 ca        1 MOL      0.071709
    120 C40        -8.9730    1.2210   -1.4690 ca        1 MOL     -0.195598
    121 C41        -9.3220    1.1780    0.9180 ca        1 MOL     -0.195598
    122 C42       -10.2520    0.5790   -1.6650 ca        1 MOL     -0.063469
    123 C43       -10.6270    0.6440    0.7480 ca        1 MOL     -0.063469
    124 C44       -11.0710    0.3410   -0.5770 ca        1 MOL     -0.162409
    125 H51        -4.3470    2.1660    0.0700 hn        1 MOL      0.249529
    126 H52        -6.1340    0.3860   -1.2760 h1        1 MOL      0.072785
    127 H53        -6.7790    2.5200   -0.8010 hc        1 MOL      0.066759
    128 H54        -6.9090    2.4810    0.8810 hc        1 MOL      0.066759
    129 H55        -8.3200    1.3570   -2.3170 ha        1 MOL      0.144167
    130 H56        -8.9640    1.1970    1.9330 ha        1 MOL      0.144167
    131 H57       -10.6070    0.2800   -2.6390 ha        1 MOL      0.103198
    132 H58       -11.2830    0.6590    1.6140 ha        1 MOL      0.103198
    133 H59       -12.0470   -0.1020   -0.7330 ha        1 MOL      0.109523
    134 N12        -7.0710   -1.5300    0.2510 n         1 MOL      0.038710
    135 C45        -7.6360   -2.4690    1.1820 c3        1 MOL      0.271119
    136 C46        -6.5700   -3.1770    1.9570 c         1 MOL      0.219431
    137 O20        -6.9100   -3.6880    3.0370 o         1 MOL     -0.497512
    138 C47        -8.5180   -3.4330    0.3920 c3        1 MOL     -0.292759
    139 C48        -8.6290   -2.7520   -0.9920 c3        1 MOL      0.092049
    140 C49        -7.3800   -1.9060   -1.1160 c3        1 MOL      0.005478
    141 H60        -8.2160   -1.9200    1.9360 h1        1 MOL      0.030326
    142 H61        -8.0020   -4.3590    0.1450 hc        1 MOL      0.081451
    143 H62        -9.4500   -3.6190    0.9150 hc        1 MOL      0.081451
    144 H63        -8.8170   -3.3270   -1.8940 hc        1 MOL     -0.005530
    145 H64        -9.4250   -2.0100   -1.0650 hc        1 MOL     -0.005530
    146 H65        -6.6060   -2.5760   -1.5120 h1        1 MOL     -0.003635
    147 H66        -7.5570   -1.0310   -1.7380 h1        1 MOL     -0.003635
    148 N13        -5.3240   -3.2870    1.4770 n         1 MOL     -0.139309
    149 C50        -4.1390   -3.5980    2.2510 c3        1 MOL     -0.188609
    150 C51        -3.9960   -2.6580    3.5340 c         1 MOL      0.507384
    151 O21        -3.8430   -3.1640    4.6360 o         1 MOL     -0.532898
    152 C52        -2.8190   -3.5640    1.4300 c3        1 MOL     -0.003949
    153 C53        -2.9690   -4.5710    0.3070 c3        1 MOL     -0.126859
    154 C54        -1.9290   -4.4170   -0.7840 c         1 MOL      0.734323
    155 O22        -2.3460   -4.3140   -1.9570 o         1 MOL     -0.738679
    156 O23        -0.7490   -4.4880   -0.4880 o         1 MOL     -0.738679
    157 H67        -5.1730   -2.9180    0.5490 hn        1 MOL      0.233665
    158 H68        -4.3140   -4.5720    2.6980 h1        1 MOL      0.097970
    159 H69        -2.0400   -3.8620    2.1310 hc        1 MOL      0.063764
    160 H70        -2.6980   -2.5690    1.0000 hc        1 MOL      0.063764
    161 H71        -3.9700   -4.5450   -0.1110 hc        1 MOL      0.000103
    162 H72        -2.7950   -5.5440    0.7660 hc        1 MOL      0.000103
    163 N14        -3.9890   -1.3330    3.1980 n         1 MOL     -0.233923
    164 C55        -3.7830   -0.2620    4.1930 c3        1 MOL     -0.219182
    165 H73        -3.4850   -0.7040    5.1450 h1        1 MOL      0.091793
    166 H74        -2.9990    0.4110    3.8450 h1        1 MOL      0.091793
    167 H75        -4.7100    0.2950    4.3250 h1        1 MOL      0.091793
    168 H76        -4.1370   -1.1040    2.2230 hn        1 MOL      0.245855
    169 Ca1         0.3060   -3.2830   -2.6810 Ca        1 MOL      1.726972
    170 O24        -1.5230   -2.9420   -4.4880 oh        1 MOL     -0.837011
    171 H77        -1.5980   -2.6180   -5.3890 ho        1 MOL      0.401068
    172 H78        -2.3440   -3.4120   -4.3300 ho        1 MOL      0.401068
    173 O25         1.4790   -4.3500   -4.8940 oh        1 MOL     -0.837011
    174 H79         1.3490   -5.1800   -5.3420 ho        1 MOL      0.401068
    175 H80         2.4290   -4.2800   -4.7830 ho        1 MOL      0.401068
    176 O26         0.2480   -6.1240   -3.1520 oh        1 MOL     -0.837011
    177 H81        -0.2010   -6.7980   -2.6260 ho        1 MOL      0.401068
    178 H82         1.1030   -6.5140   -3.3610 ho        1 MOL      0.401068
@<TRIPOS>BOND
     1    1    2 1   
     2    1    4 1   
     3    1    5 1   
     4    1    6 1   
     5    2    3 2   
     6    2    7 1   
     7    7    8 1   
     8    7   15 1   
     9    8    9 1   
    10    8   11 1   
    11    8   16 1   
    12    9   10 2   
    13    9   19 1   
    14   11   12 1   
    15   11   17 1   
    16   11   18 1   
    17   12   13 1   
    18   12   14 1   
    19   19   20 1   
    20   19   24 1   
    21   20   21 1   
    22   20   23 1   
    23   20   25 1   
    24   21   22 2   
    25   21   29 1   
    26   23   26 1   
    27   23   27 1   
    28   23   28 1   
    29   29   30 1   
    30   29   37 1   
    31   30   31 1   
    32   30   33 1   
    33   30   38 1   
    34   31   32 2   
    35   31   41 1   
    36   33   34 1   
    37   33   39 1   
    38   33   40 1   
    39   34   35 1   
    40   34   36 1   
    41   41   42 1   
    42   41   45 1   
    43   42   43 1   
    44   42   46 1   
    45   42   47 1   
    46   43   44 2   
    47   43   48 1   
    48   48   49 1   
    49   48   56 1   
    50   49   50 1   
    51   49   52 1   
    52   49   57 1   
    53   50   51 2   
    54   50   62 1   
    55   52   53 1   
    56   52   58 1   
    57   52   59 1   
    58   53   54 1   
    59   53   55 2   
    60   54   60 1   
    61   54   61 1   
    62   62   63 1   
    63   62   66 1   
    64   63   64 1   
    65   63   67 1   
    66   63   68 1   
    67   64   65 2   
    68   64   69 1   
    69   69   70 1   
    70   69   76 1   
    71   70   71 1   
    72   70   73 1   
    73   70   77 1   
    74   71   72 2   
    75   71   83 1   
    76   73   74 1   
    77   73   75 1   
    78   73   78 1   
    79   74   80 1   
    80   74   81 1   
    81   74   82 1   
    82   75   79 1   
    83   83   84 1   
    84   83   91 1   
    85   84   85 1   
    86   84   87 1   
    87   84   92 1   
    88   85   86 2   
    89   85  102 1   
    90   87   88 1   
    91   87   89 1   
    92   87   93 1   
    93   88   90 1   
    94   88   94 1   
    95   88   95 1   
    96   89   96 1   
    97   89   97 1   
    98   89   98 1   
    99   90   99 1   
   100   90  100 1   
   101   90  101 1   
   102  102  103 1   
   103  102  110 1   
   104  103  104 1   
   105  103  106 1   
   106  103  111 1   
   107  104  105 2   
   108  104  114 1   
   109  106  107 1   
   110  106  112 1   
   111  106  113 1   
   112  107  108 1   
   113  107  109 1   
   114  114  115 1   
   115  114  125 1   
   116  115  116 1   
   117  115  118 1   
   118  115  126 1   
   119  116  117 2   
   120  116  134 1   
   121  118  119 1   
   122  118  127 1   
   123  118  128 1   
   124  119  120 ar  
   125  119  121 ar  
   126  120  122 ar  
   127  120  129 1   
   128  121  123 ar  
   129  121  130 1   
   130  122  124 ar  
   131  122  131 1   
   132  123  124 ar  
   133  123  132 1   
   134  124  133 1   
   135  134  135 1   
   136  134  140 1   
   137  135  136 1   
   138  135  138 1   
   139  135  141 1   
   140  136  137 2   
   141  136  148 1   
   142  138  139 1   
   143  138  142 1   
   144  138  143 1   
   145  139  140 1   
   146  139  144 1   
   147  139  145 1   
   148  140  146 1   
   149  140  147 1   
   150  148  149 1   
   151  148  157 1   
   152  149  150 1   
   153  149  152 1   
   154  149  158 1   
   155  150  151 2   
   156  150  163 1   
   157  152  153 1   
   158  152  159 1   
   159  152  160 1   
   160  153  154 1   
   161  153  161 1   
   162  153  162 1   
   163  154  155 1   
   164  154  156 1   
   165  163  164 1   
   166  163  168 1   
   167  164  165 1   
   168  164  166 1   
   169  164  167 1   
   170  170  171 1   
   171  170  172 1   
   172  173  174 1   
   173  173  175 1   
   174  176  177 1   
   175  176  178 1   
@<TRIPOS>SUBSTRUCTURE
     1 MOL         1 TEMP              0 ****  ****    0 ROOT
