@<TRIPOS>MOLECULE
MOL
  182   178     1     0     0
SMALL
resp


@<TRIPOS>ATOM
      1 C1         -2.7400   -3.7740    6.4450 c3        1 MOL     -0.278452
      2 C2         -2.5230   -3.1660    5.0100 c         1 MOL      0.665098
      3 O1         -3.4570   -2.5910    4.3950 o         1 MOL     -0.580871
      4 H1         -1.9900   -3.3730    7.1260 hc        1 MOL      0.076460
      5 H2         -3.7350   -3.5100    6.8050 hc        1 MOL      0.076460
      6 H3         -2.6460   -4.8590    6.3990 hc        1 MOL      0.076460
      7 N1         -1.3500   -3.4190    4.4160 n         1 MOL     -0.579817
      8 C3         -0.9000   -2.9890    3.1210 c3        1 MOL     -0.055893
      9 C4         -1.5950   -3.8080    2.0070 c         1 MOL      0.932217
     10 O2         -1.7390   -5.0320    2.1170 o         1 MOL     -0.603505
     11 C5          0.6230   -3.1920    3.1330 c3        1 MOL      0.144345
     12 C6          1.3490   -2.6460    1.8620 c         1 MOL      0.436940
     13 O3          2.5710   -2.3560    1.9240 o         1 MOL     -0.615989
     14 O4          0.7170   -2.6130    0.7840 o         1 MOL     -0.615989
     15 H4         -0.6590   -3.8970    4.9840 hn        1 MOL      0.300329
     16 H5         -1.1490   -1.9330    3.0050 h1        1 MOL      0.079589
     17 H6          0.7240   -4.2780    3.1840 hc        1 MOL     -0.012837
     18 H7          1.0820   -2.7350    4.0140 hc        1 MOL     -0.012837
     19 N2         -2.1360   -3.1580    0.9810 n         1 MOL     -0.662879
     20 C7         -3.0820   -3.7660   -0.0090 c3        1 MOL      0.009498
     21 C8         -2.3260   -4.4870   -1.0990 c         1 MOL      0.483060
     22 O5         -2.9080   -5.4420   -1.7120 o         1 MOL     -0.583308
     23 C9         -4.0220   -2.7400   -0.5020 c3        1 MOL     -0.065739
     24 C10        -5.2900   -3.3440   -1.1360 c3        1 MOL      0.002336
     25 C11        -6.2240   -2.2950   -1.7370 c3        1 MOL      0.144505
     26 C12        -7.3240   -3.0060   -2.5400 c3        1 MOL      0.151133
     27 N3         -8.5330   -2.2030   -2.7180 n4        1 MOL     -0.545262
     28 H8         -1.9170   -2.1800    0.8320 hn        1 MOL      0.277043
     29 H9         -3.5760   -4.5380    0.5750 h1        1 MOL      0.118859
     30 H10        -3.4860   -2.0730   -1.1750 hc        1 MOL      0.083158
     31 H11        -4.4140   -2.2010    0.3580 hc        1 MOL      0.083158
     32 H12        -5.8380   -3.8650   -0.3420 hc        1 MOL      0.013449
     33 H13        -5.0490   -3.9880   -1.9760 hc        1 MOL      0.013449
     34 H14        -5.5560   -1.7620   -2.4080 hc        1 MOL     -0.089415
     35 H15        -6.6410   -1.6340   -0.9840 hc        1 MOL     -0.089415
     36 H16        -7.6870   -3.9070   -2.0580 hx        1 MOL      0.042545
     37 H17        -6.8550   -3.4360   -3.4260 hx        1 MOL      0.042545
     38 H18        -9.2050   -2.8160   -3.1600 hn        1 MOL      0.348707
     39 H19        -8.8400   -1.8880   -1.8020 hn        1 MOL      0.348707
     40 H20        -8.3820   -1.4170   -3.3400 hn        1 MOL      0.348707
     41 N4         -1.0430   -4.2420   -1.2890 n         1 MOL      0.002088
     42 C13        -0.1620   -4.9850   -2.1760 c3        1 MOL     -0.029850
     43 C14         1.0660   -5.6330   -1.4000 c         1 MOL      0.413246
     44 O6          1.6330   -6.6440   -1.9140 o         1 MOL     -0.512997
     45 C15         0.4890   -4.0390   -3.2840 c3        1 MOL     -0.322670
     46 C16         1.0560   -2.7790   -2.6160 c         1 MOL      0.628126
     47 O7          2.0580   -3.0320   -1.9000 o         1 MOL     -0.655505
     48 O8          0.6600   -1.5920   -2.6870 o         1 MOL     -0.655505
     49 H21        -0.5760   -3.6480   -0.6230 hn        1 MOL     -0.168883
     50 H22        -0.8170   -5.6720   -2.7040 h1        1 MOL      0.126679
     51 H23        -0.2610   -3.6740   -3.9800 hc        1 MOL      0.115862
     52 H24         1.2800   -4.5370   -3.8310 hc        1 MOL      0.115862
     53 N5          1.3300   -5.2420   -0.1330 n         1 MOL     -0.126450
     54 C17         2.4050   -5.7770    0.6910 c3        1 MOL      0.017924
     55 C18         3.8360   -5.2590    0.3710 c         1 MOL      0.440196
     56 O9          4.8620   -5.9930    0.6410 o         1 MOL     -0.578018
     57 H25         0.8210   -4.4810    0.3010 hn        1 MOL      0.142545
     58 H26         2.4060   -6.8700    0.7480 h1        1 MOL      0.047847
     59 H27         2.2440   -5.4820    1.7280 h1        1 MOL      0.047847
     60 N6          3.9620   -4.0940   -0.2190 n         1 MOL     -0.078393
     61 C19         5.2420   -3.5330   -0.6200 c3        1 MOL      0.031447
     62 C20         5.2710   -2.0050   -0.7290 c         1 MOL      0.387914
     63 O10         4.2550   -1.3640   -0.4390 o         1 MOL     -0.423840
     64 C21         5.5430   -4.1400   -2.0160 c3        1 MOL     -0.215326
     65 C22         5.4460   -3.2570   -3.2170 c         1 MOL      0.515050
     66 N7          4.2760   -2.5740   -3.3800 n         1 MOL     -0.635962
     67 O11         6.3000   -3.2510   -4.0860 o         1 MOL     -0.562239
     68 H28         3.1390   -3.5700   -0.4700 hn        1 MOL      0.060054
     69 H29         6.0760   -3.7050    0.0510 h1        1 MOL      0.081718
     70 H30         5.0690   -5.0940   -2.2390 hc        1 MOL      0.102069
     71 H31         6.5980   -4.4340   -1.9460 hc        1 MOL      0.102069
     72 H32         3.5720   -2.7920   -2.6900 hn        1 MOL      0.324944
     73 H33         4.1120   -2.0000   -4.1880 hn        1 MOL      0.324944
     74 N8          6.3600   -1.3880   -1.1370 n         1 MOL     -0.349529
     75 C23         6.5410    0.0300   -1.4130 c3        1 MOL     -0.086625
     76 C24         6.1910    0.9720   -0.2210 c         1 MOL      0.506982
     77 O12         6.4390    0.6460    0.9300 o         1 MOL     -0.464604
     78 H34         7.1990   -1.9480   -1.2810 hn        1 MOL      0.310259
     79 H35         5.9120    0.3630   -2.2310 h1        1 MOL      0.078714
     80 H36         7.5840    0.2400   -1.6410 h1        1 MOL      0.078714
     81 N9          5.5990    2.1150   -0.5890 n         1 MOL     -0.469795
     82 C25         4.9340    3.0390    0.3200 c3        1 MOL      0.214370
     83 C26         3.5430    2.4720    0.8740 c         1 MOL      0.581980
     84 O13         2.9890    1.5740    0.2660 o         1 MOL     -0.720635
     85 C27         4.8230    4.4830   -0.2870 c3        1 MOL     -0.132791
     86 C28         6.1120    5.2620   -0.4770 ca        1 MOL      0.087102
     87 C29         6.6550    5.1230   -1.7670 ca        1 MOL     -0.204222
     88 C30         6.9010    5.8490    0.5490 ca        1 MOL     -0.204222
     89 C31         7.9310    5.6450   -2.0340 ca        1 MOL     -0.217986
     90 C32         8.1520    6.4000    0.3140 ca        1 MOL     -0.217986
     91 C33         8.6640    6.2420   -1.0040 ca        1 MOL      0.317756
     92 O14         9.8690    6.6980   -1.3660 oh        1 MOL     -0.466588
     93 H37         5.4250    2.2620   -1.5750 hn        1 MOL      0.282008
     94 H38         5.5470    3.2130    1.2060 h1        1 MOL      0.034110
     95 H39         4.1250    5.0030    0.3840 hc        1 MOL      0.029552
     96 H40         4.2650    4.4830   -1.2260 hc        1 MOL      0.029552
     97 H41         6.0240    4.7900   -2.5770 ha        1 MOL      0.139008
     98 H42         6.4220    5.8320    1.5110 ha        1 MOL      0.139008
     99 H43         8.3950    5.5550   -3.0060 ha        1 MOL      0.154910
    100 H44         8.6850    6.8980    1.1190 ha        1 MOL      0.154910
    101 H45        10.3360    6.9750   -0.5760 ho        1 MOL      0.369192
    102 N10         3.0900    2.9290    2.0000 n         1 MOL     -0.472796
    103 C34         2.1860    2.2040    2.9820 c3        1 MOL      0.012680
    104 C35         0.8610    1.7140    2.3350 c         1 MOL      0.340142
    105 O15         0.7850    0.5510    1.8240 o         1 MOL     -0.487030
    106 C36         2.9880    1.0790    3.6590 c3        1 MOL      0.347797
    107 C37         2.2230    0.4650    4.9500 c3        1 MOL     -0.129582
    108 C38         4.4540    1.4330    4.1170 c3        1 MOL     -0.363429
    109 C39         2.8910   -0.8380    5.5590 c3        1 MOL     -0.062927
    110 H46         3.6780    3.6470    2.3970 hn        1 MOL      0.285386
    111 H47         1.8190    2.9250    3.7010 h1        1 MOL      0.047657
    112 H48         3.0270    0.1990    3.0120 hc        1 MOL     -0.004623
    113 H49         1.1970    0.1670    4.7150 hc        1 MOL      0.016578
    114 H50         2.1380    1.1680    5.7750 hc        1 MOL      0.016578
    115 H51         4.2400    2.1530    4.9080 hc        1 MOL      0.083944
    116 H52         4.8780    0.5610    4.6160 hc        1 MOL      0.083944
    117 H53         5.1430    1.7420    3.3360 hc        1 MOL      0.083944
    118 H54         2.9340   -1.5930    4.7730 hc        1 MOL      0.032511
    119 H55         3.8210   -0.6130    6.0840 hc        1 MOL      0.032511
    120 H56         2.1740   -1.3780    6.1790 hc        1 MOL      0.032511
    121 N11        -0.2040    2.5460    2.3750 n         1 MOL     -0.304628
    122 C40        -1.5770    2.1200    2.1780 c3        1 MOL     -0.306023
    123 C41        -2.1410    2.3990    0.8020 c         1 MOL      0.808291
    124 O16        -3.0460    1.6820    0.3960 o         1 MOL     -0.639721
    125 C42        -2.3460    2.8870    3.3030 c3        1 MOL      0.204661
    126 O17        -2.1820    4.2760    3.1020 oh        1 MOL     -0.602186
    127 H57        -0.0520    3.5000    2.6550 hn        1 MOL      0.266935
    128 H58        -1.5940    1.0360    2.2850 h1        1 MOL      0.215368
    129 H59        -1.9730    2.6270    4.2930 h1        1 MOL      0.051351
    130 H60        -3.4090    2.6350    3.3530 h1        1 MOL      0.051351
    131 H61        -2.5630    4.6880    3.8730 ho        1 MOL      0.410647
    132 N12        -1.5810    3.4370    0.1940 n         1 MOL     -0.545303
    133 C43        -2.2270    4.0130   -0.9640 c3        1 MOL      0.033839
    134 C44        -1.9380    3.3690   -2.3500 c         1 MOL      0.689907
    135 O18        -0.8620    3.3420   -2.8840 o         1 MOL     -0.586479
    136 C45        -2.1600    5.5610   -1.0680 c3        1 MOL     -0.374138
    137 H62        -0.9160    3.9820    0.7400 hn        1 MOL      0.346887
    138 H63        -3.2730    3.7760   -0.7950 h1        1 MOL      0.106047
    139 H64        -2.2130    6.0520   -0.0950 hc        1 MOL      0.122656
    140 H65        -1.1770    5.7640   -1.4850 hc        1 MOL      0.122656
    141 H66        -2.8430    5.9270   -1.8370 hc        1 MOL      0.122656
    142 N13        -2.9570    2.8760   -3.0510 n         1 MOL     -0.590960
    143 C46        -4.2570    2.4390   -2.5820 c3        1 MOL      0.182460
    144 C47        -5.1570    3.6950   -2.4170 c         1 MOL      0.847273
    145 O19        -5.0840    4.6040   -3.1760 o         1 MOL     -0.641263
    146 C48        -4.8000    1.4550   -3.6160 c3        1 MOL     -0.365060
    147 H67        -2.6770    2.6310   -3.9890 hn        1 MOL      0.346278
    148 H68        -4.2760    2.0310   -1.5660 h1        1 MOL      0.055877
    149 H69        -5.8200    1.1810   -3.3460 hc        1 MOL      0.106616
    150 H70        -4.8980    1.9900   -4.5610 hc        1 MOL      0.106616
    151 H71        -4.1880    0.5560   -3.6130 hc        1 MOL      0.106616
    152 N14        -6.0380    3.9610   -1.4710 n         1 MOL     -0.827824
    153 C49        -6.5860    3.0930   -0.4210 c3        1 MOL     -0.163176
    154 C50        -6.6670    3.9200    0.8630 c         1 MOL      0.630281
    155 O20        -6.6790    3.3230    1.9220 o         1 MOL     -0.551426
    156 C51        -7.9470    2.5320   -0.8580 c3        1 MOL     -0.166504
    157 C52        -8.2090    1.2290   -0.1040 c3        1 MOL     -0.009258
    158 C53        -9.5020    0.5470   -0.5710 c         1 MOL      0.558154
    159 O21        -9.4590   -0.6900   -0.6690 o         1 MOL     -0.640790
    160 O22       -10.5160    1.2350   -0.5910 o         1 MOL     -0.640790
    161 H72        -6.6230    4.7290   -1.7600 hn        1 MOL      0.400133
    162 H73        -5.8760    2.2830   -0.2450 h1        1 MOL      0.174334
    163 H74        -8.0190    2.3640   -1.9350 hc        1 MOL      0.079108
    164 H75        -8.7660    3.2240   -0.6440 hc        1 MOL      0.079108
    165 H76        -8.3090    1.5260    0.9400 hc        1 MOL      0.043030
    166 H77        -7.3840    0.5230   -0.1620 hc        1 MOL      0.043030
    167 N15        -6.6310    5.2400    0.7650 n         1 MOL     -0.318193
    168 C54        -6.6490    6.1020    1.9390 c3        1 MOL     -0.057511
    169 H78        -5.6350    6.2070    2.3270 h1        1 MOL      0.062316
    170 H79        -7.0360    7.0840    1.6650 h1        1 MOL      0.062316
    171 H80        -7.2860    5.6600    2.7050 h1        1 MOL      0.062316
    172 H81        -6.6150    5.6920   -0.1370 hn        1 MOL      0.264970
    173 Ca1         1.6980   -0.6490   -0.5010 Ca        1 MOL      1.792446
    174 O23        -1.5000   -0.5770   -0.5480 oh        1 MOL     -0.785603
    175 H82        -1.5710   -0.8540   -1.4620 ho        1 MOL      0.382205
    176 H83        -2.2390    0.0080   -0.4210 ho        1 MOL      0.382205
    177 O24         2.9300    0.3290   -2.6650 oh        1 MOL     -0.785603
    178 H84         2.8020    0.1450   -3.5940 ho        1 MOL      0.382205
    179 H85         3.5730    1.0360   -2.6430 ho        1 MOL      0.382205
    180 O25         0.5950    1.5370   -1.6250 oh        1 MOL     -0.785603
    181 H86         0.9660    2.2060   -1.0540 ho        1 MOL      0.382205
    182 H87         0.0880    2.0260   -2.2740 ho        1 MOL      0.382205
@<TRIPOS>BOND
     1    1    2 1   
     2    1    4 1   
     3    1    5 1   
     4    1    6 1   
     5    2    3 2   
     6    2    7 1   
     7    7    8 1   
     8    7   15 1   
     9    8    9 1   
    10    8   11 1   
    11    8   16 1   
    12    9   10 2   
    13    9   19 1   
    14   11   12 1   
    15   11   17 1   
    16   11   18 1   
    17   12   13 1   
    18   12   14 1   
    19   19   20 1   
    20   19   28 1   
    21   20   21 1   
    22   20   23 1   
    23   20   29 1   
    24   21   22 2   
    25   21   41 1   
    26   23   24 1   
    27   23   30 1   
    28   23   31 1   
    29   24   25 1   
    30   24   32 1   
    31   24   33 1   
    32   25   26 1   
    33   25   34 1   
    34   25   35 1   
    35   26   27 1   
    36   26   36 1   
    37   26   37 1   
    38   27   38 1   
    39   27   39 1   
    40   27   40 1   
    41   41   42 1   
    42   41   49 1   
    43   42   43 1   
    44   42   45 1   
    45   42   50 1   
    46   43   44 2   
    47   43   53 1   
    48   45   46 1   
    49   45   51 1   
    50   45   52 1   
    51   46   47 1   
    52   46   48 1   
    53   53   54 1   
    54   53   57 1   
    55   54   55 1   
    56   54   58 1   
    57   54   59 1   
    58   55   56 2   
    59   55   60 1   
    60   60   61 1   
    61   60   68 1   
    62   61   62 1   
    63   61   64 1   
    64   61   69 1   
    65   62   63 2   
    66   62   74 1   
    67   64   65 1   
    68   64   70 1   
    69   64   71 1   
    70   65   66 1   
    71   65   67 2   
    72   66   72 1   
    73   66   73 1   
    74   74   75 1   
    75   74   78 1   
    76   75   76 1   
    77   75   79 1   
    78   75   80 1   
    79   76   77 2   
    80   76   81 1   
    81   81   82 1   
    82   81   93 1   
    83   82   83 1   
    84   82   85 1   
    85   82   94 1   
    86   83   84 2   
    87   83  102 1   
    88   85   86 1   
    89   85   95 1   
    90   85   96 1   
    91   86   87 ar  
    92   86   88 ar  
    93   87   89 ar  
    94   87   97 1   
    95   88   90 ar  
    96   88   98 1   
    97   89   91 ar  
    98   89   99 1   
    99   90   91 ar  
   100   90  100 1   
   101   91   92 1   
   102   92  101 1   
   103  102  103 1   
   104  102  110 1   
   105  103  104 1   
   106  103  106 1   
   107  103  111 1   
   108  104  105 2   
   109  104  121 1   
   110  106  107 1   
   111  106  108 1   
   112  106  112 1   
   113  107  109 1   
   114  107  113 1   
   115  107  114 1   
   116  108  115 1   
   117  108  116 1   
   118  108  117 1   
   119  109  118 1   
   120  109  119 1   
   121  109  120 1   
   122  121  122 1   
   123  121  127 1   
   124  122  123 1   
   125  122  125 1   
   126  122  128 1   
   127  123  124 2   
   128  123  132 1   
   129  125  126 1   
   130  125  129 1   
   131  125  130 1   
   132  126  131 1   
   133  132  133 1   
   134  132  137 1   
   135  133  134 1   
   136  133  136 1   
   137  133  138 1   
   138  134  135 2   
   139  134  142 1   
   140  136  139 1   
   141  136  140 1   
   142  136  141 1   
   143  142  143 1   
   144  142  147 1   
   145  143  144 1   
   146  143  146 1   
   147  143  148 1   
   148  144  145 2   
   149  144  152 1   
   150  146  149 1   
   151  146  150 1   
   152  146  151 1   
   153  152  153 1   
   154  152  161 1   
   155  153  154 1   
   156  153  156 1   
   157  153  162 1   
   158  154  155 2   
   159  154  167 1   
   160  156  157 1   
   161  156  163 1   
   162  156  164 1   
   163  157  158 1   
   164  157  165 1   
   165  157  166 1   
   166  158  159 1   
   167  158  160 1   
   168  167  168 1   
   169  167  172 1   
   170  168  169 1   
   171  168  170 1   
   172  168  171 1   
   173  174  175 1   
   174  174  176 1   
   175  177  178 1   
   176  177  179 1   
   177  180  181 1   
   178  180  182 1   
@<TRIPOS>SUBSTRUCTURE
     1 MOL         1 TEMP              0 ****  ****    0 ROOT
