@<TRIPOS>MOLECULE
MOL
  187   181     1     0     0
SMALL
resp


@<TRIPOS>ATOM
      1 C1          0.9350   -3.6110    4.4590 c3        1 MOL     -0.320048
      2 C2          2.2310   -2.8470    4.1170 c         1 MOL      0.631460
      3 O1          2.2850   -1.6420    4.1630 o         1 MOL     -0.506827
      4 H1          0.6850   -3.4500    5.5080 hc        1 MOL      0.081524
      5 H2          0.1210   -3.2470    3.8330 hc        1 MOL      0.081524
      6 H3          1.0830   -4.6760    4.2810 hc        1 MOL      0.081524
      7 N1          3.3360   -3.5980    3.9070 n         1 MOL     -0.606157
      8 C3          4.6560   -3.0970    3.7900 c3        1 MOL      0.224722
      9 C4          5.3610   -3.4160    2.4730 c         1 MOL      0.527796
     10 O2          6.2340   -2.6630    2.0490 o         1 MOL     -0.504696
     11 C5          5.3860   -3.6210    5.0810 c3        1 MOL     -0.095309
     12 C6          6.8290   -3.3280    5.0560 c         1 MOL      0.732195
     13 O3          7.1860   -2.1190    5.1440 o         1 MOL     -0.742203
     14 O4          7.6140   -4.2890    5.0150 o         1 MOL     -0.742203
     15 H4          3.2630   -4.5990    3.9550 hn        1 MOL      0.305263
     16 H5          4.6410   -2.0080    3.8280 h1        1 MOL      0.020058
     17 H6          5.3080   -4.7000    5.1930 hc        1 MOL     -0.021915
     18 H7          4.8320   -3.2470    5.9460 hc        1 MOL     -0.021915
     19 N2          5.0040   -4.5520    1.8510 n         1 MOL     -0.553502
     20 C7          5.6390   -4.9690    0.5550 c3        1 MOL      0.162337
     21 C8          5.7320   -3.8210   -0.5120 c         1 MOL      0.502855
     22 O5          6.7330   -3.4280   -1.0980 o         1 MOL     -0.497394
     23 C9          7.1110   -5.4120    0.8440 c3        1 MOL     -0.327104
     24 H8          4.2810   -5.1170    2.2860 hn        1 MOL      0.283895
     25 H9          5.0560   -5.7610    0.0840 h1        1 MOL      0.046210
     26 H10         7.3630   -6.2790    1.4610 hc        1 MOL      0.099070
     27 H11         7.5070   -5.6740   -0.1380 hc        1 MOL      0.099070
     28 H12         7.6540   -4.5520    1.2170 hc        1 MOL      0.099070
     29 N3          4.5810   -3.2160   -0.8650 n         1 MOL     -0.198973
     30 C10         4.3530   -2.1600   -1.8650 c3        1 MOL     -0.212492
     31 C11         5.2940   -0.9820   -1.6200 c         1 MOL      0.554911
     32 O6          6.1720   -0.7870   -2.4610 o         1 MOL     -0.521026
     33 C12         4.3210   -2.8370   -3.2930 c3        1 MOL     -0.167912
     34 C13         3.3060   -3.9770   -3.3210 c         1 MOL      0.771283
     35 O7          3.5840   -4.9620   -4.0550 o         1 MOL     -0.748565
     36 O8          2.2750   -3.9590   -2.5830 o         1 MOL     -0.748565
     37 H13         3.7540   -3.3760   -0.3060 hn        1 MOL      0.180823
     38 H14         3.3670   -1.7410   -1.6840 h1        1 MOL      0.038525
     39 H15         5.3160   -3.1990   -3.5500 hc        1 MOL      0.067378
     40 H16         4.0030   -2.0420   -3.9770 hc        1 MOL      0.067378
     41 N4          5.1160   -0.2610   -0.5280 n         1 MOL     -0.147609
     42 C14         5.8480    0.9220   -0.0600 c3        1 MOL     -0.237047
     43 C15         5.7920    2.0270   -1.0350 c         1 MOL      0.512505
     44 O9          6.8420    2.6090   -1.3040 o         1 MOL     -0.515528
     45 H17         4.4630   -0.6580    0.1360 hn        1 MOL      0.193913
     46 H18         6.8940    0.6900    0.1460 h1        1 MOL      0.136741
     47 H19         5.3800    1.2830    0.8620 h1        1 MOL      0.136741
     48 N5          4.6770    2.1730   -1.7970 n         1 MOL     -0.380021
     49 C16         4.5470    3.1940   -2.8090 c3        1 MOL      0.055254
     50 C17         4.4720    4.6460   -2.4170 c         1 MOL      0.393859
     51 O10         4.5740    5.5080   -3.2600 o         1 MOL     -0.433280
     52 C18         3.2360    2.9090   -3.7170 c3        1 MOL     -0.190804
     53 C19         3.4960    3.4480   -5.1450 c         1 MOL      0.516361
     54 N6          4.6370    2.9910   -5.7010 n         1 MOL     -0.709310
     55 O11         2.8360    4.3140   -5.7000 o         1 MOL     -0.495003
     56 H20         3.8820    1.5670   -1.6750 hn        1 MOL      0.224658
     57 H21         5.3750    3.0410   -3.4920 h1        1 MOL      0.090041
     58 H22         2.3620    3.4410   -3.3510 hc        1 MOL      0.082506
     59 H23         3.0160    1.8670   -3.9280 hc        1 MOL      0.082506
     60 H24         5.0750    2.1810   -5.3010 hn        1 MOL      0.341980
     61 H25         4.8470    3.2150   -6.6560 hn        1 MOL      0.341980
     62 N7          4.2720    4.9110   -1.1110 n         1 MOL     -0.292511
     63 C20         4.0930    6.2670   -0.5470 c3        1 MOL     -0.047815
     64 C21         2.6470    6.5520   -0.1680 c         1 MOL      0.447489
     65 O12         1.7220    6.3840   -0.9710 o         1 MOL     -0.462862
     66 H26         4.1350    4.1190   -0.4990 hn        1 MOL      0.244539
     67 H27         4.4050    7.0220   -1.2660 h1        1 MOL      0.061853
     68 H28         4.6890    6.2870    0.3670 h1        1 MOL      0.061853
     69 N8          2.4200    7.1490    0.9770 n         1 MOL     -0.122205
     70 C22         1.0890    7.6000    1.4420 c3        1 MOL     -0.603775
     71 C23         0.0750    6.4980    1.7660 c         1 MOL      0.573913
     72 O13        -1.1140    6.7600    1.6780 o         1 MOL     -0.577747
     73 C24         1.1070    8.6360    2.4760 c3        1 MOL      0.554362
     74 C25         1.4600    8.0800    3.8210 c3        1 MOL     -0.247288
     75 O14         2.1050    9.5990    2.1930 oh        1 MOL     -0.643642
     76 H29         3.2870    7.4520    1.4040 hn        1 MOL      0.176901
     77 H30         0.6060    8.0320    0.5650 h1        1 MOL      0.224060
     78 H31         0.1390    9.1120    2.6530 h1        1 MOL      0.042290
     79 H32         2.9330    9.1370    2.0330 ho        1 MOL      0.383051
     80 H33         0.6890    7.4940    4.3350 hc        1 MOL      0.049038
     81 H34         2.2230    7.3110    3.7700 hc        1 MOL      0.049038
     82 H35         1.7280    8.8940    4.4880 hc        1 MOL      0.049038
     83 N9          0.4390    5.2760    1.9170 n         1 MOL     -0.135468
     84 C26        -0.4600    4.0990    2.0190 c3        1 MOL     -0.233163
     85 C27        -0.2500    3.1020    0.8570 c         1 MOL      0.663640
     86 O15         0.7910    2.9210    0.2770 o         1 MOL     -0.547888
     87 C28        -0.5000    3.3300    3.3860 c3        1 MOL      0.287739
     88 C29         0.7880    2.7460    4.0200 c3        1 MOL     -0.127917
     89 C30        -1.1280    4.2700    4.4380 c3        1 MOL     -0.491410
     90 C31         0.4430    1.7200    5.1200 c3        1 MOL     -0.085489
     91 H36         1.4370    5.2040    2.0820 hn        1 MOL      0.147967
     92 H37        -1.4860    4.4610    1.9390 h1        1 MOL      0.116358
     93 H38        -1.2180    2.5500    3.1360 hc        1 MOL     -0.000739
     94 H39         1.3250    3.5720    4.4720 hc        1 MOL      0.050908
     95 H40         1.2940    2.3100    3.1590 hc        1 MOL      0.050908
     96 H41        -2.0830    4.7260    4.1680 hc        1 MOL      0.115591
     97 H42        -1.3630    3.6790    5.3300 hc        1 MOL      0.115591
     98 H43        -0.4080    5.0570    4.6650 hc        1 MOL      0.115591
     99 H44        -0.3180    1.0570    4.7110 hc        1 MOL      0.033043
    100 H45         1.2490    0.9940    5.2010 hc        1 MOL      0.033043
    101 H46         0.1320    2.1590    6.0590 hc        1 MOL      0.033043
    102 N10        -1.3310    2.3790    0.5680 n         1 MOL     -0.530835
    103 C32        -1.3830    1.1880   -0.3450 c3        1 MOL      0.077355
    104 C33        -2.7410    1.0450   -1.0450 c         1 MOL      0.431046
    105 O16        -2.6720    0.7070   -2.2640 o         1 MOL     -0.524275
    106 C34        -0.9990   -0.0470    0.4930 c3        1 MOL     -0.008001
    107 C35        -0.7240   -1.1980   -0.4070 c         1 MOL      0.643883
    108 O17         0.4540   -1.5930   -0.5610 o         1 MOL     -0.677466
    109 O18        -1.6460   -1.7420   -1.0700 o         1 MOL     -0.677466
    110 H47        -2.2010    2.5260    1.0540 hn        1 MOL      0.239737
    111 H48        -0.5730    1.2270   -1.0810 h1        1 MOL      0.073869
    112 H49        -1.8150   -0.2200    1.1910 hc        1 MOL     -0.000428
    113 H50        -0.0960    0.1450    1.0770 hc        1 MOL     -0.000428
    114 N11        -3.7770    1.2250   -0.3220 n         1 MOL     -0.418747
    115 C36        -5.1430    1.0370   -0.8300 c3        1 MOL      0.414886
    116 C37        -6.1010    0.0660    0.0400 c         1 MOL      0.101644
    117 O19        -6.1650    0.2620    1.2100 o         1 MOL     -0.358427
    118 C38        -5.7360    2.4410   -1.1460 c3        1 MOL     -0.531801
    119 C39        -7.2230    2.5300   -1.5280 ca        1 MOL      0.181993
    120 C40        -7.6580    2.8470   -2.8560 ca        1 MOL     -0.149365
    121 C41        -8.2310    2.3380   -0.5610 ca        1 MOL     -0.149365
    122 C42        -9.0400    3.0990   -3.1020 ca        1 MOL     -0.143594
    123 C43        -9.5890    2.4170   -0.8590 ca        1 MOL     -0.143594
    124 C44       -10.0200    2.9220   -2.1440 ca        1 MOL     -0.111761
    125 H51        -3.7080    1.5160    0.6390 hn        1 MOL      0.296512
    126 H52        -5.0150    0.4780   -1.7630 h1        1 MOL     -0.031065
    127 H53        -5.2120    2.8350   -2.0110 hc        1 MOL      0.175850
    128 H54        -5.6940    3.1340   -0.3140 hc        1 MOL      0.175850
    129 H55        -6.9640    3.0520   -3.6470 ha        1 MOL      0.109172
    130 H56        -7.9040    1.9300    0.3860 ha        1 MOL      0.109172
    131 H57        -9.2940    3.5320   -4.0540 ha        1 MOL      0.114742
    132 H58       -10.3920    2.1390   -0.1920 ha        1 MOL      0.114742
    133 H59       -11.0530    3.1630   -2.3620 ha        1 MOL      0.113002
    134 N12        -6.8830   -0.8000   -0.6240 n         1 MOL      0.040947
    135 C45        -7.9560   -1.5380    0.0530 c3        1 MOL      0.119873
    136 C46        -7.4540   -2.1870    1.4130 c         1 MOL      0.243119
    137 O20        -8.2390   -2.3560    2.3280 o         1 MOL     -0.497329
    138 C47        -8.3670   -2.5390   -1.0180 c3        1 MOL     -0.054042
    139 C48        -8.2270   -1.8080   -2.4090 c3        1 MOL     -0.160934
    140 C49        -6.9540   -1.0000   -2.0790 c3        1 MOL     -0.014484
    141 H60        -8.7320   -0.8000    0.2400 h1        1 MOL      0.050900
    142 H61        -7.6100   -3.3270   -0.9330 hc        1 MOL      0.044547
    143 H62        -9.3750   -2.8620   -0.7590 hc        1 MOL      0.044547
    144 H63        -8.1070   -2.5230   -3.2280 hc        1 MOL      0.061722
    145 H64        -9.0430   -1.0980   -2.5570 hc        1 MOL      0.061722
    146 H65        -6.1210   -1.6450   -2.3630 h1        1 MOL      0.072083
    147 H66        -6.9500   -0.1100   -2.7010 h1        1 MOL      0.072083
    148 N13        -6.1550   -2.5770    1.5770 n         1 MOL     -0.035488
    149 C50        -5.5490   -3.2760    2.7210 c3        1 MOL     -0.070686
    150 C51        -5.2980   -2.2940    3.8910 c         1 MOL      0.341255
    151 O21        -5.1900   -2.8170    4.9670 o         1 MOL     -0.509123
    152 C52        -4.2380   -3.9680    2.2840 c3        1 MOL     -0.102803
    153 C53        -4.5180   -5.1030    1.2890 c3        1 MOL     -0.106585
    154 C54        -3.3430   -5.5470    0.4200 c         1 MOL      0.688704
    155 O22        -3.3910   -5.0990   -0.7450 o         1 MOL     -0.719349
    156 O23        -2.4340   -6.3510    0.7750 o         1 MOL     -0.719349
    157 H67        -5.5350   -2.4850    0.7920 hn        1 MOL      0.143265
    158 H68        -6.1970   -4.0450    3.1460 h1        1 MOL      0.134233
    159 H69        -3.6860   -4.4050    3.1150 hc        1 MOL      0.065605
    160 H70        -3.5500   -3.3040    1.7630 hc        1 MOL      0.065605
    161 H71        -5.4140   -4.8790    0.7110 hc        1 MOL     -0.009912
    162 H72        -4.7520   -5.9640    1.9150 hc        1 MOL     -0.009912
    163 N14        -5.4690   -0.9670    3.7170 n         1 MOL     -0.074956
    164 C55        -5.4560    0.0270    4.7800 c3        1 MOL     -0.095943
    165 H73        -5.2890   -0.4680    5.7370 h1        1 MOL      0.052818
    166 H74        -4.6540    0.7430    4.5980 h1        1 MOL      0.052818
    167 H75        -6.4120    0.5490    4.8030 h1        1 MOL      0.052818
    168 H76        -5.6630   -0.5970    2.7930 hn        1 MOL      0.069495
    169 Ca1        -0.1280   -3.0050   -2.9740 Ca        1 MOL      1.748255
    170 O24        -0.1050   -4.4480   -0.7870 oh        1 MOL     -0.779995
    171 H77        -0.6140   -5.1920   -0.4620 ho        1 MOL      0.377848
    172 H78         0.6810   -4.4310   -0.2370 ho        1 MOL      0.377848
    173 O25         1.1600   -2.6020   -5.6570 oh        1 MOL     -0.779995
    174 H79         0.4650   -2.7880   -6.2870 ho        1 MOL      0.377848
    175 H80         1.9560   -2.5530   -6.1830 ho        1 MOL      0.377848
    176 O26         0.8690   -0.4530   -3.4570 oh        1 MOL     -0.779995
    177 H81         0.8310    0.0360   -4.2910 ho        1 MOL      0.377848
    178 H82         1.5640   -0.0260   -2.9660 ho        1 MOL      0.377848
    179 O27        -1.9040   -4.5350   -4.3450 oh        1 MOL     -0.779995
    180 H83        -1.9670   -4.2270   -5.2520 ho        1 MOL      0.377848
    181 H84        -1.7330   -5.4750   -4.4250 ho        1 MOL      0.377848
    182 O28         0.7680   -5.4620   -4.1420 oh        1 MOL     -0.779995
    183 H85         0.4320   -6.2330   -4.5980 ho        1 MOL      0.377848
    184 H86         1.7190   -5.5720   -4.1560 ho        1 MOL      0.377848
    185 O29        -1.8900   -1.3880   -4.0570 oh        1 MOL     -0.779995
    186 H87        -2.4160   -1.0560   -3.3330 ho        1 MOL      0.377848
    187 H88        -1.7560   -0.6230   -4.6130 ho        1 MOL      0.377848
@<TRIPOS>BOND
     1    1    2 1   
     2    1    4 1   
     3    1    5 1   
     4    1    6 1   
     5    2    3 2   
     6    2    7 1   
     7    7    8 1   
     8    7   15 1   
     9    8    9 1   
    10    8   11 1   
    11    8   16 1   
    12    9   10 2   
    13    9   19 1   
    14   11   12 1   
    15   11   17 1   
    16   11   18 1   
    17   12   13 1   
    18   12   14 1   
    19   19   20 1   
    20   19   24 1   
    21   20   21 1   
    22   20   23 1   
    23   20   25 1   
    24   21   22 2   
    25   21   29 1   
    26   23   26 1   
    27   23   27 1   
    28   23   28 1   
    29   29   30 1   
    30   29   37 1   
    31   30   31 1   
    32   30   33 1   
    33   30   38 1   
    34   31   32 2   
    35   31   41 1   
    36   33   34 1   
    37   33   39 1   
    38   33   40 1   
    39   34   35 1   
    40   34   36 1   
    41   41   42 1   
    42   41   45 1   
    43   42   43 1   
    44   42   46 1   
    45   42   47 1   
    46   43   44 2   
    47   43   48 1   
    48   48   49 1   
    49   48   56 1   
    50   49   50 1   
    51   49   52 1   
    52   49   57 1   
    53   50   51 2   
    54   50   62 1   
    55   52   53 1   
    56   52   58 1   
    57   52   59 1   
    58   53   54 1   
    59   53   55 2   
    60   54   60 1   
    61   54   61 1   
    62   62   63 1   
    63   62   66 1   
    64   63   64 1   
    65   63   67 1   
    66   63   68 1   
    67   64   65 2   
    68   64   69 1   
    69   69   70 1   
    70   69   76 1   
    71   70   71 1   
    72   70   73 1   
    73   70   77 1   
    74   71   72 2   
    75   71   83 1   
    76   73   74 1   
    77   73   75 1   
    78   73   78 1   
    79   74   80 1   
    80   74   81 1   
    81   74   82 1   
    82   75   79 1   
    83   83   84 1   
    84   83   91 1   
    85   84   85 1   
    86   84   87 1   
    87   84   92 1   
    88   85   86 2   
    89   85  102 1   
    90   87   88 1   
    91   87   89 1   
    92   87   93 1   
    93   88   90 1   
    94   88   94 1   
    95   88   95 1   
    96   89   96 1   
    97   89   97 1   
    98   89   98 1   
    99   90   99 1   
   100   90  100 1   
   101   90  101 1   
   102  102  103 1   
   103  102  110 1   
   104  103  104 1   
   105  103  106 1   
   106  103  111 1   
   107  104  105 2   
   108  104  114 1   
   109  106  107 1   
   110  106  112 1   
   111  106  113 1   
   112  107  108 1   
   113  107  109 1   
   114  114  115 1   
   115  114  125 1   
   116  115  116 1   
   117  115  118 1   
   118  115  126 1   
   119  116  117 2   
   120  116  134 1   
   121  118  119 1   
   122  118  127 1   
   123  118  128 1   
   124  119  120 ar  
   125  119  121 ar  
   126  120  122 ar  
   127  120  129 1   
   128  121  123 ar  
   129  121  130 1   
   130  122  124 ar  
   131  122  131 1   
   132  123  124 ar  
   133  123  132 1   
   134  124  133 1   
   135  134  135 1   
   136  134  140 1   
   137  135  136 1   
   138  135  138 1   
   139  135  141 1   
   140  136  137 2   
   141  136  148 1   
   142  138  139 1   
   143  138  142 1   
   144  138  143 1   
   145  139  140 1   
   146  139  144 1   
   147  139  145 1   
   148  140  146 1   
   149  140  147 1   
   150  148  149 1   
   151  148  157 1   
   152  149  150 1   
   153  149  152 1   
   154  149  158 1   
   155  150  151 2   
   156  150  163 1   
   157  152  153 1   
   158  152  159 1   
   159  152  160 1   
   160  153  154 1   
   161  153  161 1   
   162  153  162 1   
   163  154  155 1   
   164  154  156 1   
   165  163  164 1   
   166  163  168 1   
   167  164  165 1   
   168  164  166 1   
   169  164  167 1   
   170  170  171 1   
   171  170  172 1   
   172  173  174 1   
   173  173  175 1   
   174  176  177 1   
   175  176  178 1   
   176  179  180 1   
   177  179  181 1   
   178  182  183 1   
   179  182  184 1   
   180  185  186 1   
   181  185  187 1   
@<TRIPOS>SUBSTRUCTURE
     1 MOL         1 TEMP              0 ****  ****    0 ROOT
