@<TRIPOS>MOLECULE
MOL
  183   181     1     0     0
SMALL
resp


@<TRIPOS>ATOM
      1 C1         12.4990    4.5950   -2.7520 c3        1 MOL     -0.423947
      2 C2         11.8770    3.5470   -1.8500 c         1 MOL      0.566878
      3 O1         11.8880    2.3540   -2.0140 o         1 MOL     -0.545797
      4 H1         12.0190    5.5580   -2.5740 hc        1 MOL      0.117510
      5 H2         13.5640    4.6740   -2.5360 hc        1 MOL      0.117510
      6 H3         12.3590    4.3070   -3.7940 hc        1 MOL      0.117510
      7 N1         11.4110    3.9850   -0.6900 n         1 MOL     -0.146394
      8 C3         10.9240    3.0650    0.4540 c3        1 MOL     -0.930289
      9 C4          9.6330    2.2590    0.0940 c         1 MOL      0.812261
     10 O2          8.5980    2.8120   -0.2110 o         1 MOL     -0.628300
     11 C5         10.8220    3.8370    1.8380 c3        1 MOL      0.718084
     12 C6         10.1810    5.1560    1.6240 c         1 MOL      0.384590
     13 O3          8.9380    5.1260    1.6240 o         1 MOL     -0.660509
     14 O4         10.9040    6.1980    1.4380 o         1 MOL     -0.660509
     15 H4         11.2860    4.9800   -0.5510 hn        1 MOL      0.204425
     16 H5         11.6830    2.2890    0.5860 h1        1 MOL      0.272113
     17 H6         11.7570    3.8260    2.3940 hc        1 MOL     -0.098441
     18 H7         10.1990    3.2910    2.5520 hc        1 MOL     -0.098441
     19 N2          9.8290    0.9460    0.1520 n         1 MOL     -0.450773
     20 C7          8.8650   -0.0520   -0.4210 c3        1 MOL      0.167760
     21 C8          7.6500   -0.1310    0.4860 c         1 MOL      0.597032
     22 O5          7.7010   -0.4610    1.6270 o         1 MOL     -0.571305
     23 C9          9.5280   -1.3740   -0.6740 c3        1 MOL     -0.337029
     24 C10         8.7300   -2.3720   -1.5580 c3        1 MOL     -0.017057
     25 C11         9.5250   -3.5840   -1.9760 c3        1 MOL     -0.014912
     26 C12         8.6870   -4.5660   -2.7370 c3        1 MOL      0.113544
     27 N3          9.5070   -5.4600   -3.5560 n4        1 MOL     -0.393435
     28 H8         10.6810    0.4960    0.4500 hn        1 MOL      0.267927
     29 H9          8.5600    0.3310   -1.3950 h1        1 MOL      0.042431
     30 H10         9.6200   -1.9080    0.2730 hc        1 MOL      0.128773
     31 H11        10.4810   -1.1670   -1.1530 hc        1 MOL      0.128773
     32 H12         8.2920   -1.9630   -2.4710 hc        1 MOL      0.053535
     33 H13         7.8610   -2.6690   -0.9500 hc        1 MOL      0.053535
     34 H14         9.9300   -4.0670   -1.0870 hc        1 MOL      0.020271
     35 H15        10.2920   -3.3220   -2.7030 hc        1 MOL      0.020271
     36 H16         7.9550   -4.0480   -3.3570 hx        1 MOL      0.085265
     37 H17         8.1470   -5.1690   -2.0180 hx        1 MOL      0.085265
     38 H18         8.9490   -6.0930   -4.1030 hn        1 MOL      0.329369
     39 H19        10.0280   -5.0120   -4.2960 hn        1 MOL      0.329369
     40 H20        10.2090   -5.8760   -2.9500 hn        1 MOL      0.329369
     41 N4          6.4250    0.1070   -0.0680 n         1 MOL     -0.476104
     42 C13         5.1120    0.0270    0.6730 c3        1 MOL      0.549208
     43 C14         4.3420   -1.1420    0.0290 c         1 MOL      0.270267
     44 O6          4.8140   -1.7360   -0.9970 o         1 MOL     -0.617601
     45 C15         4.3560    1.3780    0.5070 c3        1 MOL      0.033538
     46 C16         5.2310    2.6230    0.2690 c         1 MOL      0.666777
     47 O7          5.4370    3.0270   -0.9070 o         1 MOL     -0.798406
     48 O8          5.6930    3.2630    1.2360 o         1 MOL     -0.798406
     49 H21         6.4220    0.2780   -1.0600 hn        1 MOL      0.225840
     50 H22         5.3020   -0.1930    1.7260 h1        1 MOL     -0.019587
     51 H23         3.7860    1.4980    1.4210 hc        1 MOL     -0.011989
     52 H24         3.6200    1.2570   -0.3020 hc        1 MOL     -0.011989
     53 N5          3.2280   -1.6260    0.6360 n         1 MOL     -0.292556
     54 C17         2.4850   -1.1650    1.7890 c3        1 MOL     -0.147295
     55 C18         1.8930   -2.2720    2.7170 c         1 MOL      0.609910
     56 O9          2.2080   -3.4480    2.5210 o         1 MOL     -0.546912
     57 H25         2.8720   -2.4720    0.2000 hn        1 MOL      0.345472
     58 H26         1.6450   -0.5410    1.4810 h1        1 MOL      0.064769
     59 H27         3.0620   -0.5190    2.4500 h1        1 MOL      0.064769
     60 N6          0.9190   -1.9330    3.5900 n         1 MOL     -0.457305
     61 C19         0.3130   -2.9140    4.5280 c3        1 MOL     -0.007826
     62 C20        -0.5070   -3.9030    3.7260 c         1 MOL      0.456315
     63 O10        -1.5220   -3.5390    3.1770 o         1 MOL     -0.498940
     64 C21        -0.5170   -2.2290    5.6790 c3        1 MOL     -0.223523
     65 C22        -1.2540   -3.2980    6.5970 c         1 MOL      0.694563
     66 O11        -1.8370   -2.8060    7.5990 o         1 MOL     -0.659072
     67 O12        -1.1110   -4.5420    6.4040 o         1 MOL     -0.659072
     68 H28         0.6600   -0.9520    3.6760 hn        1 MOL      0.309581
     69 H29         1.1700   -3.3240    5.0490 h1        1 MOL      0.085608
     70 H30        -1.2300   -1.5200    5.2710 hc        1 MOL      0.071504
     71 H31         0.1760   -1.6680    6.3150 hc        1 MOL      0.071504
     72 N7         -0.2400   -5.1760    3.7350 n         1 MOL     -0.128232
     73 C23        -0.9080   -6.1680    2.9180 c3        1 MOL     -0.206378
     74 C24        -0.7950   -6.0430    1.3910 c         1 MOL      0.461622
     75 O13        -1.2800   -6.9170    0.6910 o         1 MOL     -0.552718
     76 H32         0.5170   -5.3920    4.3760 hn        1 MOL      0.189642
     77 H33        -1.9390   -6.1780    3.2640 h1        1 MOL      0.127314
     78 H34        -0.5580   -7.1700    3.1600 h1        1 MOL      0.127314
     79 N8         -0.0480   -5.0330    0.9250 n         1 MOL     -0.095220
     80 C25         0.2320   -4.7420   -0.5280 c3        1 MOL     -0.017134
     81 C26        -0.0050   -3.2710   -0.8630 c         1 MOL      0.071178
     82 O14         0.1770   -2.4270    0.0390 o         1 MOL     -0.361711
     83 C27         1.6030   -5.1880   -0.8500 c3        1 MOL      0.398402
     84 C28         1.9530   -5.0450   -2.3340 c3        1 MOL     -0.164405
     85 O15         2.5300   -4.5120   -0.0390 oh        1 MOL     -0.567942
     86 H35         0.2600   -4.3920    1.6460 hn        1 MOL      0.017306
     87 H36        -0.3930   -5.3900   -1.1460 h1        1 MOL      0.046400
     88 H37         1.6300   -6.2510   -0.6130 h1        1 MOL     -0.018247
     89 H38         2.0620   -4.3600    0.7870 ho        1 MOL      0.307640
     90 H39         1.9570   -3.9920   -2.6110 hc        1 MOL      0.028714
     91 H40         2.9210   -5.4370   -2.6590 hc        1 MOL      0.028714
     92 H41         1.1830   -5.5540   -2.9090 hc        1 MOL      0.028714
     93 N9         -0.4920   -2.9020   -2.0440 n         1 MOL     -0.048077
     94 C29        -0.8590   -1.5070   -2.3170 c3        1 MOL     -0.340747
     95 C30        -2.3180   -1.1820   -1.9220 c         1 MOL      0.821886
     96 O16        -2.6850   -0.0750   -1.5660 o         1 MOL     -0.609695
     97 C31        -0.4340   -0.9740   -3.7520 c3        1 MOL      0.149467
     98 C32         0.7700   -1.6760   -4.3170 c3        1 MOL     -0.098223
     99 C33        -0.3500    0.5460   -3.7610 c3        1 MOL     -0.249365
    100 C34         2.0820   -1.5520   -3.5360 c3        1 MOL      0.010394
    101 H42        -0.6590   -3.5690   -2.7830 hn        1 MOL      0.255408
    102 H43        -0.1840   -0.9070   -1.7090 h1        1 MOL      0.145704
    103 H44        -1.3240   -1.1380   -4.3600 hc        1 MOL     -0.004755
    104 H45         1.0450   -1.3350   -5.3110 hc        1 MOL      0.002269
    105 H46         0.4930   -2.7280   -4.4410 hc        1 MOL      0.002269
    106 H47         0.4580    0.8860   -3.1010 hc        1 MOL      0.075887
    107 H48        -0.0450    0.9030   -4.7390 hc        1 MOL      0.075887
    108 H49        -1.3150    1.0090   -3.5440 hc        1 MOL      0.075887
    109 H50         1.8870   -1.9260   -2.5370 hc        1 MOL      0.025905
    110 H51         2.7470   -2.2480   -4.0540 hc        1 MOL      0.025905
    111 H52         2.5020   -0.5490   -3.5390 hc        1 MOL      0.025905
    112 N10        -3.1680   -2.1710   -1.9380 n         1 MOL     -0.567906
    113 C35        -4.5210   -2.1400   -1.2900 c3        1 MOL      0.043893
    114 C36        -5.7410   -1.9480   -2.2390 c         1 MOL      0.539830
    115 O17        -5.7720   -2.4080   -3.3930 o         1 MOL     -0.518941
    116 C37        -4.7420   -3.3940   -0.3740 c3        1 MOL      0.433902
    117 C38        -3.7200   -3.5480    0.7930 c3        1 MOL     -0.264522
    118 O18        -6.0250   -3.4240    0.1160 oh        1 MOL     -0.596710
    119 H53        -2.8190   -3.0340   -2.3030 hn        1 MOL      0.242509
    120 H54        -4.5610   -1.1910   -0.7570 h1        1 MOL      0.096287
    121 H55        -4.5080   -4.2770   -0.9750 h1        1 MOL     -0.046651
    122 H56        -6.2590   -4.3500    0.1990 ho        1 MOL      0.392000
    123 H57        -2.7170   -3.6240    0.3620 hc        1 MOL      0.081787
    124 H58        -3.9620   -2.6130    1.2930 hc        1 MOL      0.081787
    125 H59        -3.9950   -4.4120    1.4150 hc        1 MOL      0.081787
    126 N11        -6.8430   -1.3000   -1.7790 n         1 MOL     -0.448659
    127 C39        -8.0690   -1.2500   -2.5130 c3        1 MOL     -0.166280
    128 C40        -8.7140    0.1240   -2.4020 c         1 MOL      0.703911
    129 O19        -9.3350    0.5550   -3.3840 o         1 MOL     -0.583200
    130 C41        -9.0700   -2.3490   -2.1350 c3        1 MOL      0.200580
    131 C42        -9.4400   -2.4240   -0.6150 c3        1 MOL     -0.053038
    132 O20        -8.5550   -3.5960   -2.4250 oh        1 MOL     -0.583986
    133 H60        -6.8110   -0.9290   -0.8480 hn        1 MOL      0.280204
    134 H61        -7.8010   -1.4680   -3.5450 h1        1 MOL      0.154938
    135 H62       -10.0370   -2.3250   -2.6420 h1        1 MOL      0.016181
    136 H63        -8.9230   -3.8900   -3.2680 ho        1 MOL      0.405674
    137 H64        -8.5300   -2.6970   -0.0770 hc        1 MOL      0.017605
    138 H65        -9.6750   -1.4180   -0.2560 hc        1 MOL      0.017605
    139 H66       -10.2370   -3.1020   -0.3190 hc        1 MOL      0.017605
    140 N12        -8.6380    0.8310   -1.2350 n         1 MOL     -0.577858
    141 C43        -8.8590    2.3130   -1.1710 c3        1 MOL     -0.083945
    142 C44        -8.1370    2.8610    0.1050 c         1 MOL      0.687641
    143 O21        -8.1620    2.2520    1.1260 o         1 MOL     -0.522242
    144 C45       -10.3500    2.6210   -1.1080 c3        1 MOL     -0.289969
    145 C46       -11.2450    1.7390   -0.1340 c3        1 MOL      0.246140
    146 C47       -12.6340    2.1340   -0.3240 c3        1 MOL      0.001413
    147 C48       -13.6210    1.2880    0.5000 c3        1 MOL     -0.020017
    148 N13       -14.9970    1.5620    0.0560 n4        1 MOL     -0.079658
    149 H67        -8.1560    0.3120   -0.5130 hn        1 MOL      0.331001
    150 H68        -8.4010    2.7720   -2.0480 h1        1 MOL      0.149717
    151 H69       -10.7650    2.4870   -2.0990 hc        1 MOL      0.093251
    152 H70       -10.5940    3.6560   -0.8700 hc        1 MOL      0.093251
    153 H71       -10.9480    1.7730    0.9080 hc        1 MOL     -0.029192
    154 H72       -11.1040    0.6970   -0.4270 hc        1 MOL     -0.029192
    155 H73       -12.8990    2.0990   -1.3870 hc        1 MOL      0.016555
    156 H74       -12.7840    3.1540    0.0210 hc        1 MOL      0.016555
    157 H75       -13.4700    1.6180    1.5280 hx        1 MOL      0.073483
    158 H76       -13.4180    0.2100    0.4320 hx        1 MOL      0.073483
    159 H77       -15.0830    2.4630   -0.3850 hn        1 MOL      0.204199
    160 H78       -15.3340    0.8310   -0.5610 hn        1 MOL      0.204199
    161 H79       -15.6690    1.5900    0.8120 hn        1 MOL      0.204199
    162 N14        -7.5470    4.0330   -0.1080 n         1 MOL     -0.660374
    163 C49        -6.6340    4.6650    0.8310 c3        1 MOL      0.220295
    164 C50        -5.0890    4.2710    0.5230 c         1 MOL      0.451953
    165 O22        -4.3720    4.0190    1.4620 o         1 MOL     -0.523628
    166 C51        -6.8970    6.1480    0.8170 c3        1 MOL      0.176452
    167 C52        -5.8950    7.0000    1.6400 c3        1 MOL     -0.263732
    168 C53        -6.3560    8.4720    1.7670 c         1 MOL      0.719231
    169 O23        -7.2890    8.7540    2.5680 o         1 MOL     -0.649606
    170 O24        -5.8890    9.3180    1.0050 o         1 MOL     -0.649606
    171 H80        -7.7630    4.4790   -0.9980 hn        1 MOL      0.302134
    172 H81        -6.8270    4.2680    1.8300 h1        1 MOL      0.052974
    173 H82        -7.9030    6.3880    1.1530 hc        1 MOL     -0.030969
    174 H83        -6.9350    6.4540   -0.2250 hc        1 MOL     -0.030969
    175 H84        -4.9120    7.0220    1.1670 hc        1 MOL      0.045137
    176 H85        -5.8810    6.5310    2.6220 hc        1 MOL      0.045137
    177 N15        -4.5980    4.1940   -0.7190 n         1 MOL     -0.398909
    178 C54        -5.0460    4.8920   -1.9550 c3        1 MOL     -0.068573
    179 H86        -5.0930    5.9650   -1.7700 h1        1 MOL      0.066062
    180 H87        -4.3400    4.6940   -2.7620 h1        1 MOL      0.066062
    181 H88        -6.0350    4.5290   -2.2390 h1        1 MOL      0.066062
    182 H89        -3.6360    3.8770   -0.7270 hn        1 MOL      0.303487
    183 Ca1         7.0560    5.0650   -0.0520 Ca        1 MOL      1.578020
@<TRIPOS>BOND
     1    1    2 1   
     2    1    4 1   
     3    1    5 1   
     4    1    6 1   
     5    2    3 2   
     6    2    7 1   
     7    7    8 1   
     8    7   15 1   
     9    8    9 1   
    10    8   11 1   
    11    8   16 1   
    12    9   10 2   
    13    9   19 1   
    14   11   12 1   
    15   11   17 1   
    16   11   18 1   
    17   12   13 1   
    18   12   14 1   
    19   19   20 1   
    20   19   28 1   
    21   20   21 1   
    22   20   23 1   
    23   20   29 1   
    24   21   22 2   
    25   21   41 1   
    26   23   24 1   
    27   23   30 1   
    28   23   31 1   
    29   24   25 1   
    30   24   32 1   
    31   24   33 1   
    32   25   26 1   
    33   25   34 1   
    34   25   35 1   
    35   26   27 1   
    36   26   36 1   
    37   26   37 1   
    38   27   38 1   
    39   27   39 1   
    40   27   40 1   
    41   41   42 1   
    42   41   49 1   
    43   42   43 1   
    44   42   45 1   
    45   42   50 1   
    46   43   44 2   
    47   43   53 1   
    48   45   46 1   
    49   45   51 1   
    50   45   52 1   
    51   46   47 1   
    52   46   48 1   
    53   53   54 1   
    54   53   57 1   
    55   54   55 1   
    56   54   58 1   
    57   54   59 1   
    58   55   56 2   
    59   55   60 1   
    60   60   61 1   
    61   60   68 1   
    62   61   62 1   
    63   61   64 1   
    64   61   69 1   
    65   62   63 2   
    66   62   72 1   
    67   64   65 1   
    68   64   70 1   
    69   64   71 1   
    70   65   66 1   
    71   65   67 1   
    72   72   73 1   
    73   72   76 1   
    74   73   74 1   
    75   73   77 1   
    76   73   78 1   
    77   74   75 2   
    78   74   79 1   
    79   79   80 1   
    80   79   86 1   
    81   80   81 1   
    82   80   83 1   
    83   80   87 1   
    84   81   82 2   
    85   81   93 1   
    86   83   84 1   
    87   83   85 1   
    88   83   88 1   
    89   84   90 1   
    90   84   91 1   
    91   84   92 1   
    92   85   89 1   
    93   93   94 1   
    94   93  101 1   
    95   94   95 1   
    96   94   97 1   
    97   94  102 1   
    98   95   96 2   
    99   95  112 1   
   100   97   98 1   
   101   97   99 1   
   102   97  103 1   
   103   98  100 1   
   104   98  104 1   
   105   98  105 1   
   106   99  106 1   
   107   99  107 1   
   108   99  108 1   
   109  100  109 1   
   110  100  110 1   
   111  100  111 1   
   112  112  113 1   
   113  112  119 1   
   114  113  114 1   
   115  113  116 1   
   116  113  120 1   
   117  114  115 2   
   118  114  126 1   
   119  116  117 1   
   120  116  118 1   
   121  116  121 1   
   122  117  123 1   
   123  117  124 1   
   124  117  125 1   
   125  118  122 1   
   126  126  127 1   
   127  126  133 1   
   128  127  128 1   
   129  127  130 1   
   130  127  134 1   
   131  128  129 2   
   132  128  140 1   
   133  130  131 1   
   134  130  132 1   
   135  130  135 1   
   136  131  137 1   
   137  131  138 1   
   138  131  139 1   
   139  132  136 1   
   140  140  141 1   
   141  140  149 1   
   142  141  142 1   
   143  141  144 1   
   144  141  150 1   
   145  142  143 2   
   146  142  162 1   
   147  144  145 1   
   148  144  151 1   
   149  144  152 1   
   150  145  146 1   
   151  145  153 1   
   152  145  154 1   
   153  146  147 1   
   154  146  155 1   
   155  146  156 1   
   156  147  148 1   
   157  147  157 1   
   158  147  158 1   
   159  148  159 1   
   160  148  160 1   
   161  148  161 1   
   162  162  163 1   
   163  162  171 1   
   164  163  164 1   
   165  163  166 1   
   166  163  172 1   
   167  164  165 2   
   168  164  177 1   
   169  166  167 1   
   170  166  173 1   
   171  166  174 1   
   172  167  168 1   
   173  167  175 1   
   174  167  176 1   
   175  168  169 1   
   176  168  170 1   
   177  177  178 1   
   178  177  182 1   
   179  178  179 1   
   180  178  180 1   
   181  178  181 1   
@<TRIPOS>SUBSTRUCTURE
     1 MOL         1 TEMP              0 ****  ****    0 ROOT
