@<TRIPOS>MOLECULE
MOL
  181   177     1     0     0
SMALL
resp


@<TRIPOS>ATOM
      1 C1          2.1770    6.8010   -2.4930 c3        1 MOL     -0.448284
      2 C2          3.5790    6.4380   -2.0500 c         1 MOL      0.770430
      3 O1          4.0370    6.9560   -0.9890 o         1 MOL     -0.637068
      4 H1          1.5540    5.9070   -2.4920 hc        1 MOL      0.105310
      5 H2          1.7580    7.5360   -1.8060 hc        1 MOL      0.105310
      6 H3          2.2100    7.2190   -3.4980 hc        1 MOL      0.105310
      7 N1          4.3630    5.6740   -2.7930 n         1 MOL     -0.588116
      8 C3          5.5920    5.0830   -2.3550 c3        1 MOL      0.134434
      9 C4          5.3190    4.0030   -1.3180 c         1 MOL      0.544681
     10 O2          4.4720    3.1250   -1.4750 o         1 MOL     -0.570484
     11 C5          6.3120    4.4890   -3.6150 c3        1 MOL     -0.121402
     12 C6          7.8030    4.2810   -3.3580 c         1 MOL      0.680344
     13 O3          8.2010    3.7360   -2.3010 o         1 MOL     -0.726275
     14 O4          8.6100    4.7470   -4.1930 o         1 MOL     -0.726275
     15 H4          3.9950    5.2770   -3.6410 hn        1 MOL      0.283909
     16 H5          6.0670    5.9850   -1.9670 h1        1 MOL      0.070659
     17 H6          6.2530    5.2080   -4.4330 hc        1 MOL      0.002927
     18 H7          5.8570    3.5720   -3.9870 hc        1 MOL      0.002927
     19 N2          6.0120    4.0870   -0.2130 n         1 MOL     -0.429966
     20 C7          6.0230    3.1860    0.9580 c3        1 MOL      0.288688
     21 C8          4.6750    3.2900    1.7040 c         1 MOL      0.351423
     22 O5          3.9270    4.2810    1.4020 o         1 MOL     -0.476228
     23 C9          7.2110    3.5880    1.7720 c3        1 MOL     -0.230275
     24 H8          6.7050    4.8130   -0.1670 hn        1 MOL      0.249398
     25 H9          6.1860    2.1220    0.7780 h1        1 MOL      0.073594
     26 H10         8.1250    3.5530    1.1920 hc        1 MOL      0.040745
     27 H11         7.0880    4.5980    2.1650 hc        1 MOL      0.040745
     28 H12         7.1630    2.9960    2.6860 hc        1 MOL      0.040745
     29 N3          4.1790    2.2820    2.4430 n         1 MOL     -0.360535
     30 C10         4.9180    1.2210    3.0900 c3        1 MOL      0.127695
     31 C11         5.4660    0.1160    2.1420 c         1 MOL      0.714356
     32 O6          5.0450    0.0400    0.9930 o         1 MOL     -0.508254
     33 C12         4.1200    0.6520    4.2540 c3        1 MOL     -0.285429
     34 C13         2.6480    0.5340    3.8980 c         1 MOL      0.700369
     35 O7          1.9370    1.5590    3.9980 o         1 MOL     -0.706076
     36 O8          2.2220   -0.5100    3.4000 o         1 MOL     -0.706076
     37 H13         3.1860    2.4140    2.5590 hn        1 MOL      0.235955
     38 H14         5.7960    1.6280    3.5930 h1        1 MOL      0.048318
     39 H15         4.2200    1.3240    5.1050 hc        1 MOL      0.039598
     40 H16         4.6330   -0.2500    4.6050 hc        1 MOL      0.039598
     41 N4          6.4210   -0.6900    2.6130 n         1 MOL     -0.712603
     42 C14         7.0570   -1.7810    1.9270 c3        1 MOL      0.294363
     43 C15         7.7420   -1.3910    0.6320 c         1 MOL      0.222512
     44 O9          8.3780   -0.3280    0.4930 o         1 MOL     -0.465072
     45 H17         6.8030   -0.5260    3.5290 hn        1 MOL      0.314622
     46 H18         6.3750   -2.6250    1.8340 h1        1 MOL      0.027502
     47 H19         7.8260   -2.1660    2.5940 h1        1 MOL      0.027502
     48 N5          7.6380   -2.1840   -0.4460 n         1 MOL     -0.146623
     49 C16         6.8280   -3.4340   -0.6170 c3        1 MOL     -0.304216
     50 C17         6.1540   -3.3770   -2.0360 c         1 MOL      0.562382
     51 O10         6.7700   -2.8370   -2.9740 o         1 MOL     -0.501449
     52 C18         7.8030   -4.6690   -0.5390 c3        1 MOL     -0.103140
     53 C19         8.3790   -4.8270    0.8610 c         1 MOL      0.591169
     54 N6          9.5600   -4.2840    1.1530 n         1 MOL     -0.741500
     55 O11         7.8000   -5.5100    1.7160 o         1 MOL     -0.559328
     56 H20         8.1570   -1.9010   -1.2610 hn        1 MOL      0.265799
     57 H21         6.0910   -3.5700    0.1790 h1        1 MOL      0.169326
     58 H22         8.6630   -4.6450   -1.2110 hc        1 MOL      0.049173
     59 H23         7.1520   -5.5140   -0.7420 hc        1 MOL      0.049173
     60 H24        10.0190   -3.6500    0.5290 hn        1 MOL      0.354420
     61 H25         9.8730   -4.4430    2.1000 hn        1 MOL      0.354420
     62 N7          4.9740   -3.9610   -2.2120 n         1 MOL     -0.249280
     63 C20         4.2890   -3.9540   -3.4830 c3        1 MOL     -0.252447
     64 C21         2.8310   -4.3880   -3.4390 c         1 MOL      0.614006
     65 O12         2.3570   -5.0100   -4.3790 o         1 MOL     -0.559119
     66 H26         4.5500   -4.3800   -1.3900 hn        1 MOL      0.241822
     67 H27         4.8530   -4.7330   -3.9780 h1        1 MOL      0.131890
     68 H28         4.3420   -3.0420   -4.0830 h1        1 MOL      0.131890
     69 N8          2.2270   -4.1680   -2.2820 n         1 MOL     -0.421318
     70 C22         0.9220   -4.7520   -1.9610 c3        1 MOL      0.218228
     71 C23        -0.1410   -3.6630   -1.5550 c         1 MOL      0.373619
     72 O13         0.1070   -2.4670   -1.4250 o         1 MOL     -0.537919
     73 C24         0.9240   -5.6890   -0.6550 c3        1 MOL      0.238509
     74 C25         1.7850   -6.9440   -0.9220 c3        1 MOL     -0.226869
     75 O14         1.4860   -5.0160    0.4540 oh        1 MOL     -0.586664
     76 H29         2.7560   -3.6260   -1.6170 hn        1 MOL      0.245313
     77 H30         0.4870   -5.3530   -2.7570 h1        1 MOL      0.023409
     78 H31        -0.0610   -6.1140   -0.4740 h1        1 MOL      0.035399
     79 H32         0.8390   -4.4020    0.7930 ho        1 MOL      0.426430
     80 H33         1.6350   -7.6990   -0.1490 hc        1 MOL      0.054625
     81 H34         1.5050   -7.3790   -1.8790 hc        1 MOL      0.054625
     82 H35         2.8400   -6.7750   -1.1360 hc        1 MOL      0.054625
     83 N9         -1.3640   -4.0820   -1.2670 n         1 MOL     -0.292566
     84 C26        -2.5850   -3.2860   -1.0890 c3        1 MOL     -0.146799
     85 C27        -3.1550   -3.6030    0.3030 c         1 MOL      0.331067
     86 O15        -3.2960   -4.7800    0.7010 o         1 MOL     -0.518352
     87 C28        -3.5860   -3.4810   -2.2040 c3        1 MOL      0.247866
     88 C29        -4.9210   -2.7010   -1.9480 c3        1 MOL      0.133051
     89 C30        -3.0070   -2.9940   -3.5060 c3        1 MOL     -0.347151
     90 C31        -5.9740   -3.3490   -2.8880 c3        1 MOL     -0.292674
     91 H36        -1.4650   -5.0850   -1.2020 hn        1 MOL      0.196458
     92 H37        -2.2690   -2.2360   -1.0820 h1        1 MOL      0.223676
     93 H38        -3.8240   -4.5440   -2.2690 hc        1 MOL     -0.012368
     94 H39        -4.8120   -1.6350   -2.1630 hc        1 MOL     -0.011525
     95 H40        -5.3440   -2.8570   -0.9570 hc        1 MOL     -0.011525
     96 H41        -2.1980   -3.7000   -3.6950 hc        1 MOL      0.078235
     97 H42        -3.7600   -3.0670   -4.2800 hc        1 MOL      0.078235
     98 H43        -2.6690   -1.9540   -3.4180 hc        1 MOL      0.078235
     99 H44        -5.8800   -2.8980   -3.8810 hc        1 MOL      0.056644
    100 H45        -5.8910   -4.4170   -3.0440 hc        1 MOL      0.056644
    101 H46        -6.9170   -3.0950   -2.4070 hc        1 MOL      0.056644
    102 N10        -3.4590   -2.5290    1.0750 n         1 MOL     -0.205665
    103 C32        -4.1850   -2.5680    2.4050 c3        1 MOL      0.050593
    104 C33        -5.3570   -1.6260    2.5110 c         1 MOL      0.325573
    105 O16        -6.1100   -1.6860    3.4830 o         1 MOL     -0.535484
    106 C34        -3.2310   -2.4450    3.6130 c3        1 MOL     -0.122095
    107 C35        -2.2990   -1.1770    3.5210 c         1 MOL      0.679630
    108 O17        -1.0750   -1.3810    3.4020 o         1 MOL     -0.711808
    109 O18        -2.7360   -0.0190    3.6630 o         1 MOL     -0.711808
    110 H47        -3.1430   -1.6120    0.7870 hn        1 MOL      0.163158
    111 H48        -4.5890   -3.5770    2.5540 h1        1 MOL      0.080484
    112 H49        -2.5720   -3.3030    3.4710 hc        1 MOL      0.044232
    113 H50        -3.7200   -2.4650    4.5860 hc        1 MOL      0.044232
    114 N11        -5.5660   -0.6910    1.5840 n         1 MOL     -0.199122
    115 C36        -6.8330   -0.0230    1.3200 c3        1 MOL      0.034835
    116 C37        -6.6840    1.3220    0.5180 c         1 MOL      0.239692
    117 O19        -7.1180    1.4050   -0.6310 o         1 MOL     -0.327280
    118 C38        -7.5810   -1.1650    0.5490 c3        1 MOL     -0.070237
    119 C39        -9.0320   -0.9190    0.0930 ca        1 MOL      0.151885
    120 C40        -9.5920   -1.8500   -0.8610 ca        1 MOL     -0.248922
    121 C41        -9.8180    0.1360    0.5430 ca        1 MOL     -0.248922
    122 C42       -10.8290   -1.5800   -1.4420 ca        1 MOL     -0.032891
    123 C43       -11.0740    0.3450   -0.1040 ca        1 MOL     -0.032891
    124 C44       -11.5490   -0.4800   -1.1080 ca        1 MOL     -0.200722
    125 H51        -4.9360   -0.7510    0.7990 hn        1 MOL      0.281496
    126 H52        -7.4100    0.2200    2.2160 h1        1 MOL      0.069792
    127 H53        -7.6170   -2.0220    1.2220 hc        1 MOL      0.050675
    128 H54        -7.0110   -1.4890   -0.3310 hc        1 MOL      0.050675
    129 H55        -9.0400   -2.7210   -1.1790 ha        1 MOL      0.138940
    130 H56        -9.5280    0.7950    1.3420 ha        1 MOL      0.138940
    131 H57       -11.2250   -2.2750   -2.1680 ha        1 MOL      0.078143
    132 H58       -11.7130    1.1550    0.1930 ha        1 MOL      0.078143
    133 H59       -12.4080   -0.2070   -1.6890 ha        1 MOL      0.114851
    134 N12        -5.9800    2.3020    1.1430 n         1 MOL     -0.093957
    135 C45        -5.8320    3.5960    0.5180 c3        1 MOL     -0.164829
    136 C46        -5.2810    3.6460   -0.9330 c         1 MOL      0.317174
    137 O20        -5.5970    4.4800   -1.7660 o         1 MOL     -0.489259
    138 C47        -4.8560    4.2930    1.4950 c3        1 MOL      0.115315
    139 C48        -5.1450    3.7590    2.9160 c3        1 MOL     -0.246521
    140 C49        -5.4890    2.3290    2.5580 c3        1 MOL      0.318202
    141 H60        -6.8410    3.9920    0.5990 h1        1 MOL      0.095780
    142 H61        -3.7960    4.2590    1.2040 hc        1 MOL      0.022032
    143 H62        -5.0290    5.3650    1.4520 hc        1 MOL      0.022032
    144 H63        -4.2800    3.8660    3.5570 hc        1 MOL      0.051798
    145 H64        -6.0010    4.3470    3.2500 hc        1 MOL      0.051798
    146 H65        -4.5710    1.7580    2.7010 h1        1 MOL     -0.034323
    147 H66        -6.2430    1.9920    3.2750 h1        1 MOL     -0.034323
    148 N13        -4.5290    2.6050   -1.2730 n         1 MOL     -0.167429
    149 C50        -3.9920    2.5090   -2.6750 c3        1 MOL     -0.170626
    150 C51        -5.0830    2.3620   -3.7290 c         1 MOL      0.466521
    151 O21        -4.9200    2.7490   -4.8480 o         1 MOL     -0.554618
    152 C52        -3.0150    1.2980   -2.7590 c3        1 MOL     -0.202305
    153 C53        -1.9220    1.0850   -1.7280 c3        1 MOL     -0.178286
    154 C54        -2.4530    0.8010   -0.3400 c         1 MOL      0.725348
    155 O22        -1.8950    1.2810    0.6570 o         1 MOL     -0.791493
    156 O23        -3.4370    0.0450   -0.2660 o         1 MOL     -0.791493
    157 H67        -4.3130    1.8790   -0.6080 hn        1 MOL      0.311677
    158 H68        -3.5060    3.4530   -2.9050 h1        1 MOL      0.147165
    159 H69        -2.5110    1.2140   -3.7220 hc        1 MOL      0.092165
    160 H70        -3.5640    0.3540   -2.8020 hc        1 MOL      0.092165
    161 H71        -1.3940    2.0300   -1.6170 hc        1 MOL      0.086540
    162 H72        -1.2090    0.3610   -2.1110 hc        1 MOL      0.086540
    163 N14        -6.2670    2.0100   -3.2780 n         1 MOL      0.011439
    164 C55        -7.5060    1.8880   -4.0880 c3        1 MOL     -0.260614
    165 H73        -8.2040    1.2190   -3.5840 h1        1 MOL      0.091034
    166 H74        -7.9640    2.8700   -4.2040 h1        1 MOL      0.091034
    167 H75        -7.2610    1.4830   -5.0710 h1        1 MOL      0.091034
    168 H76        -6.3880    1.6870   -2.3320 hn        1 MOL      0.043129
    169 Ca1        -0.4220    0.9920    2.8190 Ca        1 MOL      1.775790
    170 O24         0.5330   -0.8120    0.8680 oh        1 MOL     -0.790006
    171 H77         0.1900   -0.7520   -0.0270 ho        1 MOL      0.390818
    172 H78         0.8430   -1.7140    0.9510 ho        1 MOL      0.390818
    173 O25        -0.2900    0.3940    5.6650 oh        1 MOL     -0.790006
    174 H79        -0.9700    0.3810    6.3380 ho        1 MOL      0.390818
    175 H80         0.5350    0.5070    6.1460 ho        1 MOL      0.390818
    176 O26         1.2850    2.3370    1.3440 oh        1 MOL     -0.790006
    177 H81         1.4680    3.2370    1.1020 ho        1 MOL      0.390818
    178 H82         1.7470    1.8050    0.6940 ho        1 MOL      0.390818
    179 O27        -1.1450    3.1860    4.2170 oh        1 MOL     -0.790006
    180 H83        -1.3780    4.1060    4.1080 ho        1 MOL      0.390818
    181 H84        -1.6230    2.9040    4.9960 ho        1 MOL      0.390818
@<TRIPOS>BOND
     1    1    2 1   
     2    1    4 1   
     3    1    5 1   
     4    1    6 1   
     5    2    3 2   
     6    2    7 1   
     7    7    8 1   
     8    7   15 1   
     9    8    9 1   
    10    8   11 1   
    11    8   16 1   
    12    9   10 2   
    13    9   19 1   
    14   11   12 1   
    15   11   17 1   
    16   11   18 1   
    17   12   13 1   
    18   12   14 1   
    19   19   20 1   
    20   19   24 1   
    21   20   21 1   
    22   20   23 1   
    23   20   25 1   
    24   21   22 2   
    25   21   29 1   
    26   23   26 1   
    27   23   27 1   
    28   23   28 1   
    29   29   30 1   
    30   29   37 1   
    31   30   31 1   
    32   30   33 1   
    33   30   38 1   
    34   31   32 2   
    35   31   41 1   
    36   33   34 1   
    37   33   39 1   
    38   33   40 1   
    39   34   35 1   
    40   34   36 1   
    41   41   42 1   
    42   41   45 1   
    43   42   43 1   
    44   42   46 1   
    45   42   47 1   
    46   43   44 2   
    47   43   48 1   
    48   48   49 1   
    49   48   56 1   
    50   49   50 1   
    51   49   52 1   
    52   49   57 1   
    53   50   51 2   
    54   50   62 1   
    55   52   53 1   
    56   52   58 1   
    57   52   59 1   
    58   53   54 1   
    59   53   55 2   
    60   54   60 1   
    61   54   61 1   
    62   62   63 1   
    63   62   66 1   
    64   63   64 1   
    65   63   67 1   
    66   63   68 1   
    67   64   65 2   
    68   64   69 1   
    69   69   70 1   
    70   69   76 1   
    71   70   71 1   
    72   70   73 1   
    73   70   77 1   
    74   71   72 2   
    75   71   83 1   
    76   73   74 1   
    77   73   75 1   
    78   73   78 1   
    79   74   80 1   
    80   74   81 1   
    81   74   82 1   
    82   75   79 1   
    83   83   84 1   
    84   83   91 1   
    85   84   85 1   
    86   84   87 1   
    87   84   92 1   
    88   85   86 2   
    89   85  102 1   
    90   87   88 1   
    91   87   89 1   
    92   87   93 1   
    93   88   90 1   
    94   88   94 1   
    95   88   95 1   
    96   89   96 1   
    97   89   97 1   
    98   89   98 1   
    99   90   99 1   
   100   90  100 1   
   101   90  101 1   
   102  102  103 1   
   103  102  110 1   
   104  103  104 1   
   105  103  106 1   
   106  103  111 1   
   107  104  105 2   
   108  104  114 1   
   109  106  107 1   
   110  106  112 1   
   111  106  113 1   
   112  107  108 1   
   113  107  109 1   
   114  114  115 1   
   115  114  125 1   
   116  115  116 1   
   117  115  118 1   
   118  115  126 1   
   119  116  117 2   
   120  116  134 1   
   121  118  119 1   
   122  118  127 1   
   123  118  128 1   
   124  119  120 ar  
   125  119  121 ar  
   126  120  122 ar  
   127  120  129 1   
   128  121  123 ar  
   129  121  130 1   
   130  122  124 ar  
   131  122  131 1   
   132  123  124 ar  
   133  123  132 1   
   134  124  133 1   
   135  134  135 1   
   136  134  140 1   
   137  135  136 1   
   138  135  138 1   
   139  135  141 1   
   140  136  137 2   
   141  136  148 1   
   142  138  139 1   
   143  138  142 1   
   144  138  143 1   
   145  139  140 1   
   146  139  144 1   
   147  139  145 1   
   148  140  146 1   
   149  140  147 1   
   150  148  149 1   
   151  148  157 1   
   152  149  150 1   
   153  149  152 1   
   154  149  158 1   
   155  150  151 2   
   156  150  163 1   
   157  152  153 1   
   158  152  159 1   
   159  152  160 1   
   160  153  154 1   
   161  153  161 1   
   162  153  162 1   
   163  154  155 1   
   164  154  156 1   
   165  163  164 1   
   166  163  168 1   
   167  164  165 1   
   168  164  166 1   
   169  164  167 1   
   170  170  171 1   
   171  170  172 1   
   172  173  174 1   
   173  173  175 1   
   174  176  177 1   
   175  176  178 1   
   176  179  180 1   
   177  179  181 1   
@<TRIPOS>SUBSTRUCTURE
     1 MOL         1 TEMP              0 ****  ****    0 ROOT
