@<TRIPOS>MOLECULE
MOL
  192   187     1     0     0
SMALL
resp


@<TRIPOS>ATOM
      1 C1          9.7690    0.6380    0.6390 c3        1 MOL     -0.642765
      2 C2          8.4680    0.3460   -0.1280 c         1 MOL      0.798397
      3 O1          7.4150    0.4540    0.4950 o         1 MOL     -0.693017
      4 H1         10.0630   -0.2470    1.2050 hc        1 MOL      0.158951
      5 H2         10.5580    0.8960   -0.0680 hc        1 MOL      0.158951
      6 H3          9.6080    1.4690    1.3250 hc        1 MOL      0.158951
      7 N1          8.5540   -0.2350   -1.2840 n         1 MOL     -0.505873
      8 C3          7.3450   -0.5650   -1.9900 c3        1 MOL      0.027253
      9 C4          6.9410   -2.0400   -1.6520 c         1 MOL      0.474882
     10 O2          7.0470   -2.9170   -2.5090 o         1 MOL     -0.447322
     11 C5          7.4820   -0.2150   -3.4790 c3        1 MOL     -0.216924
     12 C6          8.6560   -0.8670   -4.2250 c         1 MOL      0.683252
     13 O3          9.6570   -1.4190   -3.6770 o         1 MOL     -0.618520
     14 O4          8.5900   -0.9100   -5.4700 o         1 MOL     -0.618520
     15 H4          9.4420   -0.3030   -1.7650 hn        1 MOL      0.258909
     16 H5          6.4940   -0.0050   -1.6100 h1        1 MOL      0.100915
     17 H6          7.5700    0.8510   -3.6450 hc        1 MOL      0.081252
     18 H7          6.5730   -0.5150   -4.0120 hc        1 MOL      0.081252
     19 N2          6.4940   -2.2530   -0.4110 n         1 MOL     -0.402075
     20 C7          6.0240   -3.5970    0.1160 c3        1 MOL      0.080202
     21 C8          4.5620   -3.8760   -0.1640 c         1 MOL      0.613764
     22 O5          4.2570   -4.9530   -0.5470 o         1 MOL     -0.558910
     23 C9          6.3800   -3.7950    1.6230 c3        1 MOL     -0.055123
     24 C10         7.9010   -3.6540    1.8850 c3        1 MOL      0.128069
     25 C11         8.2930   -3.6780    3.3900 c3        1 MOL     -0.194206
     26 C12         9.7890   -3.6120    3.5410 c3        1 MOL      0.216764
     27 N3         10.2000   -3.4870    4.9400 n4        1 MOL     -0.342866
     28 H8          6.4140   -1.4750    0.2320 hn        1 MOL      0.338456
     29 H9          6.5750   -4.3310   -0.4610 h1        1 MOL      0.054798
     30 H10         6.0220   -4.7640    1.9540 hc        1 MOL      0.011812
     31 H11         5.9330   -3.0350    2.2660 hc        1 MOL      0.011812
     32 H12         8.1770   -2.6790    1.4880 hc        1 MOL     -0.009389
     33 H13         8.4970   -4.4330    1.4040 hc        1 MOL     -0.009389
     34 H14         8.0050   -4.6670    3.7600 hc        1 MOL      0.061086
     35 H15         7.8400   -2.8360    3.9190 hc        1 MOL      0.061086
     36 H16        10.2970   -2.8830    2.9060 hx        1 MOL      0.029445
     37 H17        10.0750   -4.6160    3.2260 hx        1 MOL      0.029445
     38 H18        11.1950   -3.3070    4.9250 hn        1 MOL      0.259105
     39 H19         9.7040   -2.7210    5.3690 hn        1 MOL      0.259105
     40 H20        10.0760   -4.3790    5.3900 hn        1 MOL      0.259105
     41 N4          3.6100   -2.9810    0.0880 n         1 MOL     -0.451162
     42 C13         3.7370   -1.7260    0.8250 c3        1 MOL      0.048019
     43 C14         3.8340   -0.3950   -0.0380 c         1 MOL     -0.045818
     44 O6          3.6760   -0.4880   -1.2370 o         1 MOL     -0.311421
     45 C15         2.6650   -1.5890    1.9530 c3        1 MOL     -0.174851
     46 C16         1.2040   -1.7630    1.5930 c         1 MOL      0.710291
     47 O7          0.7220   -1.1220    0.6200 o         1 MOL     -0.681606
     48 O8          0.6000   -2.5830    2.3050 o         1 MOL     -0.681606
     49 H21         2.6660   -3.1930   -0.2140 hn        1 MOL      0.362199
     50 H22         4.6130   -1.7790    1.4650 h1        1 MOL      0.090341
     51 H23         2.7790   -0.6220    2.4480 hc        1 MOL      0.021674
     52 H24         2.8060   -2.2200    2.8310 hc        1 MOL      0.021674
     53 N5          4.0510    0.7610    0.6350 n         1 MOL     -0.019881
     54 C17         4.2050    2.0550    0.0130 c3        1 MOL     -0.410537
     55 C18         2.9340    2.3700   -0.8580 c         1 MOL      0.569962
     56 O9          1.8100    1.8000   -0.6500 o         1 MOL     -0.507681
     57 H25         4.1210    0.6130    1.6210 hn        1 MOL      0.219078
     58 H26         5.0400    1.9730   -0.6730 h1        1 MOL      0.167642
     59 H27         4.2420    2.7460    0.8640 h1        1 MOL      0.167642
     60 N6          3.1280    3.2820   -1.8490 n         1 MOL     -0.405269
     61 C19         2.0660    4.0920   -2.3760 c3        1 MOL      0.128718
     62 C20         2.4840    5.5070   -2.6740 c         1 MOL      0.595896
     63 O10         3.6360    5.7310   -2.7260 o         1 MOL     -0.543355
     64 C21         1.5590    3.5490   -3.7020 c3        1 MOL     -0.317318
     65 C22         0.9840    2.1180   -3.5870 c         1 MOL      0.631281
     66 O11         1.6260    1.1550   -4.1560 o         1 MOL     -0.639827
     67 O12        -0.0790    2.0170   -2.9120 o         1 MOL     -0.639827
     68 H28         4.0640    3.5720   -2.1180 hn        1 MOL      0.300433
     69 H29         1.2650    3.9810   -1.6500 h1        1 MOL      0.062694
     70 H30         2.4070    3.4710   -4.3840 hc        1 MOL      0.087472
     71 H31         0.8370    4.1810   -4.2090 hc        1 MOL      0.087472
     72 N7          1.5630    6.4920   -2.7610 n         1 MOL     -0.575339
     73 C23         0.0560    6.4200   -2.7540 c3        1 MOL      0.066428
     74 C24        -0.4610    6.3810   -1.3510 c         1 MOL      0.489574
     75 O13        -0.0460    7.2290   -0.5100 o         1 MOL     -0.536689
     76 H32         1.9550    7.4120   -2.9190 hn        1 MOL      0.336288
     77 H33        -0.3440    5.6010   -3.3490 h1        1 MOL      0.061773
     78 H34        -0.4510    7.2790   -3.1950 h1        1 MOL      0.061773
     79 N8         -1.3890    5.5040   -1.0560 n         1 MOL     -0.466097
     80 C25        -2.0020    5.2090    0.2680 c3        1 MOL      0.152200
     81 C26        -1.2930    3.9450    0.8150 c         1 MOL      0.531061
     82 O14        -0.8000    3.0550    0.1060 o         1 MOL     -0.617469
     83 C27        -3.5140    5.0640    0.1940 c3        1 MOL      0.336569
     84 C28        -4.2120    4.6000    1.4960 c3        1 MOL     -0.381591
     85 O15        -3.9380    4.0990   -0.7710 oh        1 MOL     -0.658732
     86 H35        -1.7150    4.9110   -1.8090 hn        1 MOL      0.265051
     87 H36        -1.7550    5.9740    1.0020 h1        1 MOL      0.030883
     88 H37        -3.8430    6.0370   -0.1780 h1        1 MOL      0.019316
     89 H38        -4.7080    4.4220   -1.2400 ho        1 MOL      0.434433
     90 H39        -3.8070    5.2450    2.2710 hc        1 MOL      0.089140
     91 H40        -5.3030    4.5670    1.5760 hc        1 MOL      0.089140
     92 H41        -3.9730    3.5640    1.7380 hc        1 MOL      0.089140
     93 N9         -1.2290    3.9430    2.1420 n         1 MOL     -0.372224
     94 C29        -0.5600    2.9690    3.0130 c3        1 MOL     -0.295866
     95 C30        -1.2110    1.5690    2.8270 c         1 MOL      0.767984
     96 O16        -1.1200    0.9920    1.7570 o         1 MOL     -0.591113
     97 C31         0.9860    2.8270    2.7800 c3        1 MOL      0.432094
     98 C32         1.6240    4.2430    2.8300 c3        1 MOL     -0.101348
     99 C33         1.5600    1.9590    3.8840 c3        1 MOL     -0.457586
    100 C34         1.8520    5.0990    1.5270 c3        1 MOL     -0.051077
    101 H42        -1.6480    4.6990    2.6600 hn        1 MOL      0.297192
    102 H43        -0.6750    3.3120    4.0420 h1        1 MOL      0.107441
    103 H44         1.1850    2.3440    1.8280 hc        1 MOL     -0.058028
    104 H45         2.6190    4.1300    3.2670 hc        1 MOL      0.010186
    105 H46         1.0700    4.8550    3.5390 hc        1 MOL      0.010186
    106 H47         2.6510    2.0070    3.9000 hc        1 MOL      0.108788
    107 H48         1.2330    2.3410    4.8490 hc        1 MOL      0.108788
    108 H49         1.3180    0.9490    3.5650 hc        1 MOL      0.108788
    109 H50         0.9260    5.2100    0.9530 hc        1 MOL      0.024036
    110 H51         2.1790    6.0840    1.8660 hc        1 MOL      0.024036
    111 H52         2.5880    4.6210    0.8790 hc        1 MOL      0.024036
    112 N10        -1.9500    1.1020    3.8380 n         1 MOL     -0.569688
    113 C35        -2.5030   -0.2830    3.8600 c3        1 MOL     -0.051555
    114 C36        -3.7900   -0.4930    3.0450 c         1 MOL      0.480978
    115 O17        -4.1290   -1.6620    2.8770 o         1 MOL     -0.536483
    116 C37        -2.6970   -0.8300    5.2600 c3        1 MOL      0.372210
    117 C38        -3.8780   -0.1230    5.9190 c3        1 MOL     -0.282615
    118 O18        -1.6140   -0.4760    6.1480 oh        1 MOL     -0.625725
    119 H53        -2.1670    1.6410    4.6640 hn        1 MOL      0.304754
    120 H54        -1.8270   -0.9760    3.3650 h1        1 MOL      0.091685
    121 H55        -2.8120   -1.9110    5.3150 h1        1 MOL      0.043767
    122 H56        -0.8270   -0.9890    5.9480 ho        1 MOL      0.394250
    123 H57        -4.7680   -0.3640    5.3450 hc        1 MOL      0.074156
    124 H58        -4.0040   -0.5430    6.9200 hc        1 MOL      0.074156
    125 H59        -3.8100    0.9530    6.0900 hc        1 MOL      0.074156
    126 N11        -4.5430    0.5470    2.7940 n         1 MOL     -0.139983
    127 C39        -5.9540    0.5060    2.3410 c3        1 MOL     -0.421366
    128 C40        -6.1150   -0.2210    0.9880 c         1 MOL      0.689400
    129 O19        -5.6020    0.2930   -0.0250 o         1 MOL     -0.553737
    130 C41        -6.7000    1.8380    2.1570 c3        1 MOL      0.575584
    131 C42        -8.1560    1.7340    1.6570 c3        1 MOL     -0.230358
    132 O20        -6.6800    2.4700    3.4310 oh        1 MOL     -0.666709
    133 H60        -4.0820    1.4280    2.9980 hn        1 MOL      0.151762
    134 H61        -6.5530   -0.0240    3.0770 h1        1 MOL      0.165622
    135 H62        -6.2480    2.5180    1.4210 h1        1 MOL     -0.039719
    136 H63        -5.7690    2.5510    3.7330 ho        1 MOL      0.386529
    137 H64        -8.4530    0.7270    1.9410 hc        1 MOL      0.064659
    138 H65        -8.8170    2.5410    1.9580 hc        1 MOL      0.064659
    139 H66        -8.1560    1.7860    0.5700 hc        1 MOL      0.064659
    140 N12        -6.8690   -1.3640    0.9440 n         1 MOL     -0.569837
    141 C43        -7.1060   -2.1390   -0.2780 c3        1 MOL      0.291007
    142 C44        -5.8020   -2.4580   -0.9960 c         1 MOL      0.366746
    143 O21        -5.6910   -2.2240   -2.1710 o         1 MOL     -0.490920
    144 C45        -8.3060   -1.5940   -1.0550 c3        1 MOL     -0.331077
    145 C46        -8.7630   -2.5830   -2.1810 c3        1 MOL      0.058191
    146 C47        -9.6890   -1.8350   -3.0770 c3        1 MOL     -0.068724
    147 C48       -10.3560   -2.7690   -4.1280 c3        1 MOL      0.056969
    148 N13       -11.4020   -1.8740   -4.8490 n4        1 MOL     -0.321084
    149 H67        -7.0720   -1.7440    1.8560 hn        1 MOL      0.308206
    150 H68        -7.4810   -3.1220    0.0140 h1        1 MOL      0.025949
    151 H69        -8.0460   -0.6310   -1.4910 hc        1 MOL      0.082191
    152 H70        -9.1460   -1.5260   -0.3680 hc        1 MOL      0.082191
    153 H71        -9.2690   -3.4230   -1.7170 hc        1 MOL      0.035002
    154 H72        -7.8780   -2.8860   -2.7440 hc        1 MOL      0.035002
    155 H73        -9.1080   -1.1090   -3.6440 hc        1 MOL      0.056901
    156 H74       -10.4890   -1.3440   -2.5140 hc        1 MOL      0.056901
    157 H75       -10.7970   -3.6690   -3.7060 hx        1 MOL      0.087023
    158 H76        -9.6030   -3.1150   -4.8310 hx        1 MOL      0.087023
    159 H77       -11.8560   -2.4180   -5.5730 hn        1 MOL      0.247317
    160 H78       -12.0690   -1.5480   -4.1640 hn        1 MOL      0.247317
    161 H79       -10.9470   -1.1150   -5.3210 hn        1 MOL      0.247317
    162 N14        -4.8560   -3.0090   -0.2570 n         1 MOL     -0.394402
    163 C49        -3.5430   -3.4160   -0.7300 c3        1 MOL      0.227032
    164 C50        -2.4440   -2.7630    0.0550 c         1 MOL      0.437853
    165 O22        -1.9620   -1.7410   -0.3620 o         1 MOL     -0.585121
    166 C51        -3.4410   -4.9190   -0.9540 c3        1 MOL     -0.164635
    167 C52        -4.2240   -5.2330   -2.2510 c3        1 MOL     -0.246257
    168 C53        -4.6530   -6.6690   -2.3830 c         1 MOL      0.720832
    169 O23        -4.2150   -7.3760   -3.3470 o         1 MOL     -0.672455
    170 O24        -5.3940   -7.1360   -1.4950 o         1 MOL     -0.672455
    171 H80        -5.1550   -3.1790    0.6850 hn        1 MOL      0.258234
    172 H81        -3.5010   -2.9150   -1.6980 h1        1 MOL      0.049856
    173 H82        -3.7570   -5.5220   -0.1010 hc        1 MOL      0.092725
    174 H83        -2.3840   -5.1080   -1.1610 hc        1 MOL      0.092725
    175 H84        -3.7650   -4.8890   -3.1770 hc        1 MOL      0.068847
    176 H85        -5.1920   -4.7300   -2.3230 hc        1 MOL      0.068847
    177 N15        -1.8890   -3.2450    1.1780 n         1 MOL     -0.319312
    178 C54        -2.0300   -4.5910    1.9430 c3        1 MOL     -0.120854
    179 H86        -2.3350   -4.3940    2.9710 h1        1 MOL      0.069878
    180 H87        -2.7820   -5.2110    1.4540 h1        1 MOL      0.069878
    181 H88        -1.0730   -5.1120    1.9420 h1        1 MOL      0.069878
    182 H89        -1.3570   -2.5750    1.7200 hn        1 MOL      0.316134
    183 Ca1        -0.7100    0.5270   -0.7610 Ca        1 MOL      1.750166
    184 O25        -3.2090    1.4790   -0.4090 oh        1 MOL     -0.884527
    185 H90        -3.9460    0.8920   -0.5090 ho        1 MOL      0.425653
    186 H91        -3.5780    2.3490   -0.5350 ho        1 MOL      0.425653
    187 O26         1.3050   -0.5660   -2.2130 oh        1 MOL     -0.884527
    188 H92         1.2310    0.2100   -2.7620 ho        1 MOL      0.425653
    189 H93         2.1980   -0.5370   -1.8770 ho        1 MOL      0.425653
    190 O27        -2.1890   -0.3530   -2.8740 oh        1 MOL     -0.884527
    191 H94        -2.1190   -1.2340   -3.2440 ho        1 MOL      0.425653
    192 H95        -3.1070   -0.1140   -3.0010 ho        1 MOL      0.425653
@<TRIPOS>BOND
     1    1    2 1   
     2    1    4 1   
     3    1    5 1   
     4    1    6 1   
     5    2    3 2   
     6    2    7 1   
     7    7    8 1   
     8    7   15 1   
     9    8    9 1   
    10    8   11 1   
    11    8   16 1   
    12    9   10 2   
    13    9   19 1   
    14   11   12 1   
    15   11   17 1   
    16   11   18 1   
    17   12   13 1   
    18   12   14 1   
    19   19   20 1   
    20   19   28 1   
    21   20   21 1   
    22   20   23 1   
    23   20   29 1   
    24   21   22 2   
    25   21   41 1   
    26   23   24 1   
    27   23   30 1   
    28   23   31 1   
    29   24   25 1   
    30   24   32 1   
    31   24   33 1   
    32   25   26 1   
    33   25   34 1   
    34   25   35 1   
    35   26   27 1   
    36   26   36 1   
    37   26   37 1   
    38   27   38 1   
    39   27   39 1   
    40   27   40 1   
    41   41   42 1   
    42   41   49 1   
    43   42   43 1   
    44   42   45 1   
    45   42   50 1   
    46   43   44 2   
    47   43   53 1   
    48   45   46 1   
    49   45   51 1   
    50   45   52 1   
    51   46   47 1   
    52   46   48 1   
    53   53   54 1   
    54   53   57 1   
    55   54   55 1   
    56   54   58 1   
    57   54   59 1   
    58   55   56 2   
    59   55   60 1   
    60   60   61 1   
    61   60   68 1   
    62   61   62 1   
    63   61   64 1   
    64   61   69 1   
    65   62   63 2   
    66   62   72 1   
    67   64   65 1   
    68   64   70 1   
    69   64   71 1   
    70   65   66 1   
    71   65   67 1   
    72   72   73 1   
    73   72   76 1   
    74   73   74 1   
    75   73   77 1   
    76   73   78 1   
    77   74   75 2   
    78   74   79 1   
    79   79   80 1   
    80   79   86 1   
    81   80   81 1   
    82   80   83 1   
    83   80   87 1   
    84   81   82 2   
    85   81   93 1   
    86   83   84 1   
    87   83   85 1   
    88   83   88 1   
    89   84   90 1   
    90   84   91 1   
    91   84   92 1   
    92   85   89 1   
    93   93   94 1   
    94   93  101 1   
    95   94   95 1   
    96   94   97 1   
    97   94  102 1   
    98   95   96 2   
    99   95  112 1   
   100   97   98 1   
   101   97   99 1   
   102   97  103 1   
   103   98  100 1   
   104   98  104 1   
   105   98  105 1   
   106   99  106 1   
   107   99  107 1   
   108   99  108 1   
   109  100  109 1   
   110  100  110 1   
   111  100  111 1   
   112  112  113 1   
   113  112  119 1   
   114  113  114 1   
   115  113  116 1   
   116  113  120 1   
   117  114  115 2   
   118  114  126 1   
   119  116  117 1   
   120  116  118 1   
   121  116  121 1   
   122  117  123 1   
   123  117  124 1   
   124  117  125 1   
   125  118  122 1   
   126  126  127 1   
   127  126  133 1   
   128  127  128 1   
   129  127  130 1   
   130  127  134 1   
   131  128  129 2   
   132  128  140 1   
   133  130  131 1   
   134  130  132 1   
   135  130  135 1   
   136  131  137 1   
   137  131  138 1   
   138  131  139 1   
   139  132  136 1   
   140  140  141 1   
   141  140  149 1   
   142  141  142 1   
   143  141  144 1   
   144  141  150 1   
   145  142  143 2   
   146  142  162 1   
   147  144  145 1   
   148  144  151 1   
   149  144  152 1   
   150  145  146 1   
   151  145  153 1   
   152  145  154 1   
   153  146  147 1   
   154  146  155 1   
   155  146  156 1   
   156  147  148 1   
   157  147  157 1   
   158  147  158 1   
   159  148  159 1   
   160  148  160 1   
   161  148  161 1   
   162  162  163 1   
   163  162  171 1   
   164  163  164 1   
   165  163  166 1   
   166  163  172 1   
   167  164  165 2   
   168  164  177 1   
   169  166  167 1   
   170  166  173 1   
   171  166  174 1   
   172  167  168 1   
   173  167  175 1   
   174  167  176 1   
   175  168  169 1   
   176  168  170 1   
   177  177  178 1   
   178  177  182 1   
   179  178  179 1   
   180  178  180 1   
   181  178  181 1   
   182  184  185 1   
   183  184  186 1   
   184  187  188 1   
   185  187  189 1   
   186  190  191 1   
   187  190  192 1   
@<TRIPOS>SUBSTRUCTURE
     1 MOL         1 TEMP              0 ****  ****    0 ROOT
