@<TRIPOS>MOLECULE
MOL
  188   182     1     0     0
SMALL
resp


@<TRIPOS>ATOM
      1 C1          5.9470    3.2150   -2.6550 c3        1 MOL     -0.385571
      2 C2          6.2780    1.7140   -2.5920 c         1 MOL      0.629391
      3 O1          5.5850    0.9490   -1.9250 o         1 MOL     -0.525578
      4 H1          4.8790    3.3580   -2.4840 hc        1 MOL      0.092771
      5 H2          6.5110    3.7440   -1.8870 hc        1 MOL      0.092771
      6 H3          6.2130    3.6050   -3.6370 hc        1 MOL      0.092771
      7 N1          7.4660    1.3750   -3.0990 n         1 MOL     -0.511897
      8 C3          8.1370    0.0710   -3.0080 c3        1 MOL      0.110189
      9 C4          8.2810   -0.2410   -1.4950 c         1 MOL      0.507341
     10 O2          7.9080   -1.2880   -0.9920 o         1 MOL     -0.469660
     11 C5          7.3700   -1.0530   -3.7290 c3        1 MOL     -0.183011
     12 C6          8.0690   -2.4450   -3.6720 c         1 MOL      0.634750
     13 O3          7.3400   -3.4290   -4.1230 o         1 MOL     -0.637769
     14 O4          9.2950   -2.5100   -3.3990 o         1 MOL     -0.637769
     15 H4          7.8980    2.1310   -3.6120 hn        1 MOL      0.291421
     16 H5          9.1650    0.1030   -3.3670 h1        1 MOL      0.048635
     17 H6          7.2890   -0.8440   -4.7960 hc        1 MOL      0.062455
     18 H7          6.3520   -1.0810   -3.3560 hc        1 MOL      0.062455
     19 N2          8.6770    0.7420   -0.6690 n         1 MOL     -0.470132
     20 C7          8.8120    0.4880    0.7960 c3        1 MOL     -0.038974
     21 C8          7.5920    0.3480    1.6840 c         1 MOL      0.511637
     22 O5          7.7050    0.3470    2.9330 o         1 MOL     -0.562097
     23 C9          9.8260    1.4740    1.3090 c3        1 MOL     -0.009168
     24 C10         9.2780    2.8640    1.6410 c3        1 MOL      0.023082
     25 C11        10.3880    3.8470    2.0250 c3        1 MOL     -0.001762
     26 C12         9.7420    5.1400    2.5050 c3        1 MOL      0.040887
     27 N3         10.8130    6.1050    3.0220 n4        1 MOL     -0.166902
     28 H8          8.8650    1.6690   -1.0210 hn        1 MOL      0.247144
     29 H9          9.3900   -0.4390    0.8140 h1        1 MOL      0.161227
     30 H10        10.7170    1.5610    0.6860 hc        1 MOL      0.030206
     31 H11        10.1610    1.0300    2.2510 hc        1 MOL      0.030206
     32 H12         8.5600    2.8560    2.4600 hc        1 MOL      0.016977
     33 H13         8.7350    3.3330    0.8200 hc        1 MOL      0.016977
     34 H14        11.0410    3.9970    1.1630 hc        1 MOL      0.016336
     35 H15        11.0060    3.3650    2.7820 hc        1 MOL      0.016336
     36 H16         8.9970    5.0490    3.2960 hx        1 MOL      0.058589
     37 H17         9.3540    5.6150    1.6040 hx        1 MOL      0.058589
     38 H18        11.5100    6.2600    2.3100 hn        1 MOL      0.195801
     39 H19        10.3880    7.0000    3.1910 hn        1 MOL      0.195801
     40 H20        11.2360    5.7690    3.8770 hn        1 MOL      0.195801
     41 N4          6.3650    0.3120    1.1460 n         1 MOL     -0.328524
     42 C13         5.0630    0.2980    1.8050 c3        1 MOL     -0.029375
     43 C14         4.8420   -1.1160    2.3900 c         1 MOL      0.561043
     44 O6          5.2010   -2.1570    1.7330 o         1 MOL     -0.448917
     45 C15         3.9210    0.8250    0.8600 c3        1 MOL     -0.063429
     46 C16         2.4730    0.6140    1.4210 c         1 MOL      0.611208
     47 O7          1.7680    1.6320    1.6300 o         1 MOL     -0.694613
     48 O8          2.0880   -0.5480    1.5920 o         1 MOL     -0.694613
     49 H21         6.3360    0.3360    0.1440 hn        1 MOL      0.222784
     50 H22         5.1090    1.0550    2.5970 h1        1 MOL      0.037121
     51 H23         3.9780    0.3450   -0.1180 hc        1 MOL      0.041515
     52 H24         3.9750    1.9010    0.6770 hc        1 MOL      0.041515
     53 N5          4.1640   -1.1910    3.5790 n         1 MOL     -0.406255
     54 C17         3.9100   -2.4640    4.3090 c3        1 MOL      0.000388
     55 C18         3.0820   -3.5300    3.6190 c         1 MOL      0.446903
     56 O9          3.1220   -4.6650    4.1470 o         1 MOL     -0.553552
     57 H25         3.9430   -0.3290    4.0440 hn        1 MOL      0.262493
     58 H26         3.4190   -2.2240    5.2570 h1        1 MOL      0.067409
     59 H27         4.8980   -2.8130    4.5820 h1        1 MOL      0.067409
     60 N6          2.4590   -3.2300    2.5230 n         1 MOL     -0.061686
     61 C19         1.9320   -4.1940    1.5350 c3        1 MOL     -0.213757
     62 C20         2.1430   -3.7460    0.1110 c         1 MOL      0.592334
     63 O10         1.4140   -4.1120   -0.8070 o         1 MOL     -0.559783
     64 C21         0.4720   -4.5810    1.9340 c3        1 MOL     -0.001185
     65 C22        -0.4870   -3.4210    2.1080 c         1 MOL      0.436166
     66 N7         -1.4130   -3.5370    3.0100 n         1 MOL     -0.769846
     67 O11        -0.3300   -2.3610    1.5540 o         1 MOL     -0.457056
     68 H28         2.3130   -2.2580    2.3000 hn        1 MOL     -0.005864
     69 H29         2.4770   -5.1120    1.7540 h1        1 MOL      0.154866
     70 H30         0.5130   -5.1100    2.8960 hc        1 MOL      0.057931
     71 H31         0.0790   -5.2990    1.2250 hc        1 MOL      0.057931
     72 H32        -1.4320   -4.3110    3.6610 hn        1 MOL      0.357391
     73 H33        -2.0600   -2.7960    3.2420 hn        1 MOL      0.357391
     74 N8          3.1130   -2.8350   -0.1110 n         1 MOL     -0.331094
     75 C23         3.6630   -2.4760   -1.4380 c3        1 MOL     -0.062048
     76 C24         2.8920   -1.4660   -2.2240 c         1 MOL      0.471331
     77 O12         3.0960   -1.4480   -3.4220 o         1 MOL     -0.520819
     78 H34         3.6650   -2.4790    0.6500 hn        1 MOL      0.205485
     79 H35         3.8130   -3.3630   -2.0630 h1        1 MOL      0.126311
     80 H36         4.6890   -2.1200   -1.4100 h1        1 MOL      0.126311
     81 N9          1.9140   -0.8400   -1.5890 n         1 MOL     -0.179959
     82 C25         1.0300    0.1350   -2.1930 c3        1 MOL     -0.127957
     83 C26        -0.3680    0.1870   -1.4790 c         1 MOL      0.556411
     84 O13        -0.4240    0.0710   -0.2310 o         1 MOL     -0.525360
     85 C27         1.7040    1.4880   -2.1300 c3        1 MOL     -0.356944
     86 C28         0.8880    2.6100   -2.5800 ca        1 MOL      0.078850
     87 C29         0.6260    2.7930   -3.9120 ca        1 MOL     -0.100707
     88 C30         0.5220    3.6100   -1.6360 ca        1 MOL     -0.100707
     89 C31        -0.0450    3.9480   -4.4000 ca        1 MOL     -0.352545
     90 C32        -0.1480    4.8120   -2.0970 ca        1 MOL     -0.352545
     91 C33        -0.4490    4.9700   -3.4960 ca        1 MOL      0.383089
     92 O14        -1.1030    6.1100   -3.8970 oh        1 MOL     -0.479824
     93 H37         1.7560   -0.8940   -0.5930 hn        1 MOL      0.156501
     94 H38         0.8600   -0.1520   -3.2330 h1        1 MOL      0.098470
     95 H39         2.4170    1.4250   -2.9600 hc        1 MOL      0.185050
     96 H40         2.2070    1.6670   -1.1860 hc        1 MOL      0.185050
     97 H41         1.0850    2.1060   -4.6110 ha        1 MOL      0.133310
     98 H42         0.8610    3.6460   -0.6210 ha        1 MOL      0.133310
     99 H43        -0.2800    4.0350   -5.4530 ha        1 MOL      0.172564
    100 H44        -0.3460    5.6770   -1.4890 ha        1 MOL      0.172564
    101 H45        -1.1670    6.7790   -3.2120 ho        1 MOL      0.363745
    102 N10        -1.4420    0.4270   -2.2310 n         1 MOL     -0.429465
    103 C34        -2.8300    0.3820   -1.8210 c3        1 MOL      0.035900
    104 C35        -3.3010   -0.9490   -1.2560 c         1 MOL      0.309387
    105 O15        -4.2070   -0.8950   -0.4200 o         1 MOL     -0.472242
    106 C36        -3.6800    0.8830   -3.0620 c3        1 MOL      0.003230
    107 C37        -3.2980    2.3380   -3.5540 c3        1 MOL     -0.055489
    108 C38        -5.1800    0.9360   -2.6190 c3        1 MOL     -0.272895
    109 C39        -3.6110    3.5240   -2.5600 c3        1 MOL     -0.018617
    110 H46        -1.3120    0.6380   -3.2050 hn        1 MOL      0.238408
    111 H47        -3.0120    1.1540   -1.0730 h1        1 MOL      0.155722
    112 H48        -3.6000    0.2440   -3.9490 hc        1 MOL      0.033419
    113 H49        -3.8430    2.5580   -4.4700 hc        1 MOL      0.057889
    114 H50        -2.2530    2.3770   -3.8330 hc        1 MOL      0.057889
    115 H51        -5.2850    1.2320   -1.5740 hc        1 MOL      0.095844
    116 H52        -5.7930    1.5670   -3.2830 hc        1 MOL      0.095844
    117 H53        -5.6230   -0.0430   -2.7770 hc        1 MOL      0.095844
    118 H54        -3.4670    4.4700   -3.0690 hc        1 MOL      0.005690
    119 H55        -4.6430    3.4750   -2.2140 hc        1 MOL      0.005690
    120 H56        -2.9820    3.4650   -1.6720 hc        1 MOL      0.005690
    121 N11        -2.6110   -2.0750   -1.4930 n         1 MOL     -0.260816
    122 C40        -2.9050   -3.3340   -0.8040 c3        1 MOL     -0.521490
    123 C41        -4.3720   -3.7480   -0.8410 c         1 MOL      0.816994
    124 O16        -4.8620   -4.4210    0.0120 o         1 MOL     -0.563575
    125 C42        -2.0000   -4.4190   -1.3620 c3        1 MOL      0.335931
    126 O17        -2.0700   -4.5680   -2.7750 oh        1 MOL     -0.605767
    127 H57        -1.7490   -2.0860   -2.0210 hn        1 MOL      0.297197
    128 H58        -2.5260   -3.2720    0.2260 h1        1 MOL      0.173393
    129 H59        -2.1400   -5.4250   -0.9740 h1        1 MOL      0.060970
    130 H60        -0.9910   -4.0920   -1.1330 h1        1 MOL      0.060970
    131 H61        -1.4780   -3.9030   -3.1380 ho        1 MOL      0.384774
    132 N12        -5.1010   -3.2770   -1.8520 n         1 MOL     -0.455288
    133 C43        -6.5750   -3.4620   -2.0710 c3        1 MOL      0.107802
    134 C44        -7.4380   -2.9850   -0.9180 c         1 MOL      0.577263
    135 O18        -8.4240   -3.5480   -0.4880 o         1 MOL     -0.514045
    136 C45        -6.7880   -4.8820   -2.6070 c3        1 MOL     -0.297535
    137 H62        -4.6450   -2.6420   -2.4890 hn        1 MOL      0.269185
    138 H63        -6.8120   -2.7410   -2.8560 h1        1 MOL      0.078114
    139 H64        -6.4490   -5.6590   -1.9260 hc        1 MOL      0.092538
    140 H65        -7.8660   -4.9830   -2.6690 hc        1 MOL      0.092538
    141 H66        -6.4020   -5.0830   -3.6010 hc        1 MOL      0.092538
    142 N13        -7.0460   -1.8340   -0.3440 n         1 MOL     -0.655364
    143 C46        -7.8370   -1.1940    0.6940 c3        1 MOL      0.721964
    144 C47        -8.1410    0.2960    0.4490 c         1 MOL      0.319827
    145 O19        -7.4850    0.9350   -0.3710 o         1 MOL     -0.501983
    146 C48        -7.3140   -1.5000    2.1590 c3        1 MOL     -0.284782
    147 H67        -6.2420   -1.3060   -0.6730 hn        1 MOL      0.177243
    148 H68        -8.7950   -1.6900    0.6050 h1        1 MOL     -0.114248
    149 H69        -6.7980   -2.4460    2.2620 hc        1 MOL      0.053684
    150 H70        -6.6340   -0.6850    2.4280 hc        1 MOL      0.053684
    151 H71        -8.1300   -1.4520    2.8830 hc        1 MOL      0.053684
    152 N14        -9.1460    0.8480    1.0680 n         1 MOL     -0.345480
    153 C49        -9.7160    2.2420    0.7540 c3        1 MOL     -0.081083
    154 C50        -9.9860    2.5070   -0.6850 c         1 MOL      0.492466
    155 O20       -10.0440    3.6560   -1.0590 o         1 MOL     -0.499703
    156 C51        -8.7380    3.3300    1.3120 c3        1 MOL      0.063541
    157 C52        -8.5880    3.2280    2.8420 c3        1 MOL      0.047040
    158 C53        -9.6790    3.8820    3.6270 c         1 MOL      0.605061
    159 O21        -9.4820    5.0160    4.1530 o         1 MOL     -0.634619
    160 O22       -10.8100    3.3240    3.7420 o         1 MOL     -0.634619
    161 H72        -9.6250    0.3030    1.7720 hn        1 MOL      0.248166
    162 H73       -10.6740    2.2810    1.2690 h1        1 MOL      0.096976
    163 H74        -8.8750    4.3980    1.1770 hc        1 MOL      0.026824
    164 H75        -7.7530    3.0550    0.9330 hc        1 MOL      0.026824
    165 H76        -7.6290    3.6560    3.1320 hc        1 MOL     -0.081644
    166 H77        -8.4590    2.1560    3.0050 hc        1 MOL     -0.081644
    167 N15       -10.3330    1.4520   -1.4650 n         1 MOL     -0.270298
    168 C54       -10.4770    1.4240   -2.9150 c3        1 MOL     -0.162751
    169 H78       -11.0840    2.2710   -3.2360 h1        1 MOL      0.084266
    170 H79        -9.4930    1.4880   -3.3790 h1        1 MOL      0.084266
    171 H80       -10.9610    0.4950   -3.2150 h1        1 MOL      0.084266
    172 H81       -10.5980    0.5840   -1.0120 hn        1 MOL      0.216955
    173 Ca1        -0.3460    0.2740    2.4500 Ca        1 MOL      1.854771
    174 O23        -2.6580   -0.7890    1.9610 oh        1 MOL     -0.909882
    175 H82        -3.1810   -1.0000    1.1850 ho        1 MOL      0.443325
    176 H83        -3.1460   -1.1750    2.6930 ho        1 MOL      0.443325
    177 O24         0.5890    2.0790    4.3450 oh        1 MOL     -0.909882
    178 H84         0.3630    2.6920    5.0500 ho        1 MOL      0.443325
    179 H85         1.4270    1.7100    4.6030 ho        1 MOL      0.443325
    180 O25         0.6060   -1.0560    4.5810 oh        1 MOL     -0.909882
    181 H86         1.0910   -0.7300    5.3390 ho        1 MOL      0.443325
    182 H87         0.2550   -1.9080    4.8640 ho        1 MOL      0.443325
    183 O26        -2.3780    0.9670    4.6140 oh        1 MOL     -0.909882
    184 H88        -3.1640    0.5560    4.9740 ho        1 MOL      0.443325
    185 H89        -2.3720    1.8450    4.9890 ho        1 MOL      0.443325
    186 O27        -1.6780    2.4660    1.8290 oh        1 MOL     -0.909882
    187 H90        -2.0650    2.8880    1.0680 ho        1 MOL      0.443325
    188 H91        -1.8690    3.0630    2.5520 ho        1 MOL      0.443325
@<TRIPOS>BOND
     1    1    2 1   
     2    1    4 1   
     3    1    5 1   
     4    1    6 1   
     5    2    3 2   
     6    2    7 1   
     7    7    8 1   
     8    7   15 1   
     9    8    9 1   
    10    8   11 1   
    11    8   16 1   
    12    9   10 2   
    13    9   19 1   
    14   11   12 1   
    15   11   17 1   
    16   11   18 1   
    17   12   13 1   
    18   12   14 1   
    19   19   20 1   
    20   19   28 1   
    21   20   21 1   
    22   20   23 1   
    23   20   29 1   
    24   21   22 2   
    25   21   41 1   
    26   23   24 1   
    27   23   30 1   
    28   23   31 1   
    29   24   25 1   
    30   24   32 1   
    31   24   33 1   
    32   25   26 1   
    33   25   34 1   
    34   25   35 1   
    35   26   27 1   
    36   26   36 1   
    37   26   37 1   
    38   27   38 1   
    39   27   39 1   
    40   27   40 1   
    41   41   42 1   
    42   41   49 1   
    43   42   43 1   
    44   42   45 1   
    45   42   50 1   
    46   43   44 2   
    47   43   53 1   
    48   45   46 1   
    49   45   51 1   
    50   45   52 1   
    51   46   47 1   
    52   46   48 1   
    53   53   54 1   
    54   53   57 1   
    55   54   55 1   
    56   54   58 1   
    57   54   59 1   
    58   55   56 2   
    59   55   60 1   
    60   60   61 1   
    61   60   68 1   
    62   61   62 1   
    63   61   64 1   
    64   61   69 1   
    65   62   63 2   
    66   62   74 1   
    67   64   65 1   
    68   64   70 1   
    69   64   71 1   
    70   65   66 1   
    71   65   67 2   
    72   66   72 1   
    73   66   73 1   
    74   74   75 1   
    75   74   78 1   
    76   75   76 1   
    77   75   79 1   
    78   75   80 1   
    79   76   77 2   
    80   76   81 1   
    81   81   82 1   
    82   81   93 1   
    83   82   83 1   
    84   82   85 1   
    85   82   94 1   
    86   83   84 2   
    87   83  102 1   
    88   85   86 1   
    89   85   95 1   
    90   85   96 1   
    91   86   87 ar  
    92   86   88 ar  
    93   87   89 ar  
    94   87   97 1   
    95   88   90 ar  
    96   88   98 1   
    97   89   91 ar  
    98   89   99 1   
    99   90   91 ar  
   100   90  100 1   
   101   91   92 1   
   102   92  101 1   
   103  102  103 1   
   104  102  110 1   
   105  103  104 1   
   106  103  106 1   
   107  103  111 1   
   108  104  105 2   
   109  104  121 1   
   110  106  107 1   
   111  106  108 1   
   112  106  112 1   
   113  107  109 1   
   114  107  113 1   
   115  107  114 1   
   116  108  115 1   
   117  108  116 1   
   118  108  117 1   
   119  109  118 1   
   120  109  119 1   
   121  109  120 1   
   122  121  122 1   
   123  121  127 1   
   124  122  123 1   
   125  122  125 1   
   126  122  128 1   
   127  123  124 2   
   128  123  132 1   
   129  125  126 1   
   130  125  129 1   
   131  125  130 1   
   132  126  131 1   
   133  132  133 1   
   134  132  137 1   
   135  133  134 1   
   136  133  136 1   
   137  133  138 1   
   138  134  135 2   
   139  134  142 1   
   140  136  139 1   
   141  136  140 1   
   142  136  141 1   
   143  142  143 1   
   144  142  147 1   
   145  143  144 1   
   146  143  146 1   
   147  143  148 1   
   148  144  145 2   
   149  144  152 1   
   150  146  149 1   
   151  146  150 1   
   152  146  151 1   
   153  152  153 1   
   154  152  161 1   
   155  153  154 1   
   156  153  156 1   
   157  153  162 1   
   158  154  155 2   
   159  154  167 1   
   160  156  157 1   
   161  156  163 1   
   162  156  164 1   
   163  157  158 1   
   164  157  165 1   
   165  157  166 1   
   166  158  159 1   
   167  158  160 1   
   168  167  168 1   
   169  167  172 1   
   170  168  169 1   
   171  168  170 1   
   172  168  171 1   
   173  174  175 1   
   174  174  176 1   
   175  177  178 1   
   176  177  179 1   
   177  180  181 1   
   178  180  182 1   
   179  183  184 1   
   180  183  185 1   
   181  186  187 1   
   182  186  188 1   
@<TRIPOS>SUBSTRUCTURE
     1 MOL         1 TEMP              0 ****  ****    0 ROOT
