@<TRIPOS>MOLECULE
MOL
  188   182     1     0     0
SMALL
resp


@<TRIPOS>ATOM
      1 C1         -9.6920    6.3620    0.2050 c3        1 MOL     -0.233830
      2 C2        -10.2450    5.0350   -0.4290 c         1 MOL      0.608586
      3 O1        -10.8170    4.9870   -1.5060 o         1 MOL     -0.554027
      4 H1        -10.3250    6.6550    1.0430 hc        1 MOL      0.057635
      5 H2         -8.6740    6.2010    0.5600 hc        1 MOL      0.057635
      6 H3         -9.6960    7.1530   -0.5450 hc        1 MOL      0.057635
      7 N1         -9.9620    3.9160    0.2050 n         1 MOL     -0.481041
      8 C3        -10.2180    2.6010   -0.3350 c3        1 MOL      0.120340
      9 C4         -9.2800    1.5610    0.1540 c         1 MOL      0.699954
     10 O2         -8.5700    1.7670    1.1390 o         1 MOL     -0.559612
     11 C5        -11.6320    2.2920    0.0820 c3        1 MOL     -0.140283
     12 C6        -12.1580    0.9330   -0.3320 c         1 MOL      0.703133
     13 O3        -12.5080    0.0390    0.5200 o         1 MOL     -0.698553
     14 O4        -12.1700    0.7440   -1.5380 o         1 MOL     -0.698553
     15 H4         -9.4750    3.8910    1.0920 hn        1 MOL      0.283895
     16 H5        -10.2400    2.6710   -1.4190 h1        1 MOL      0.080016
     17 H6        -12.3530    3.0080   -0.3260 hc        1 MOL      0.017002
     18 H7        -11.6050    2.4370    1.1690 hc        1 MOL      0.017002
     19 N2         -9.0360    0.5190   -0.6240 n         1 MOL     -0.809465
     20 C7         -8.1370   -0.5720   -0.3180 c3        1 MOL      0.190179
     21 C8         -6.7580   -0.1500   -0.6800 c         1 MOL      0.557080
     22 O5         -6.6050    0.8700   -1.3340 o         1 MOL     -0.479679
     23 C9         -8.5280   -1.8450   -1.0360 c3        1 MOL      0.027650
     24 C10        -9.8560   -2.4290   -0.7470 c3        1 MOL     -0.214187
     25 C11       -10.0750   -2.5640    0.7810 c3        1 MOL     -0.058084
     26 C12       -11.2170   -3.5000    1.1050 c3        1 MOL      0.057437
     27 N3        -12.5710   -2.8210    1.0120 n4        1 MOL     -0.267013
     28 H8         -9.4920    0.4710   -1.5210 hn        1 MOL      0.408461
     29 H9         -8.1380   -0.7470    0.7570 h1        1 MOL      0.037525
     30 H10        -7.7970   -2.6510   -0.9320 hc        1 MOL      0.037764
     31 H11        -8.4720   -1.6120   -2.0990 hc        1 MOL      0.037764
     32 H12        -9.8150   -3.3230   -1.3710 hc        1 MOL      0.077287
     33 H13       -10.6190   -1.7720   -1.1710 hc        1 MOL      0.077287
     34 H14       -10.1990   -1.5570    1.1670 hc        1 MOL      0.046893
     35 H15        -9.1770   -3.0100    1.2110 hc        1 MOL      0.046893
     36 H16       -11.1050   -4.0090    2.0620 hx        1 MOL      0.067046
     37 H17       -11.1650   -4.3240    0.3920 hx        1 MOL      0.067046
     38 H18       -12.8920   -2.9620    0.0570 hn        1 MOL      0.277810
     39 H19       -13.3040   -3.1950    1.5800 hn        1 MOL      0.277810
     40 H20       -12.5730   -1.8140    0.9110 hn        1 MOL      0.277810
     41 N4         -5.7820   -1.0420   -0.4940 n         1 MOL     -0.556707
     42 C13        -4.4220   -1.0220   -1.0980 c3        1 MOL      0.189707
     43 C14        -3.9770   -2.4520   -1.5630 c         1 MOL      0.427460
     44 O6         -4.3850   -3.4040   -0.9080 o         1 MOL     -0.458554
     45 C15        -3.4820   -0.3220   -0.1930 c3        1 MOL     -0.103963
     46 C16        -2.1150   -0.1740   -0.8410 c         1 MOL      0.650540
     47 O7         -1.8920    0.7160   -1.7250 o         1 MOL     -0.720693
     48 O8         -1.1980   -0.9050   -0.5930 o         1 MOL     -0.720693
     49 H21        -5.9850   -1.9080   -0.0250 hn        1 MOL      0.240768
     50 H22        -4.5020   -0.3120   -1.9260 h1        1 MOL      0.005705
     51 H23        -3.3470   -0.7690    0.7960 hc        1 MOL      0.048659
     52 H24        -3.8610    0.6930   -0.1020 hc        1 MOL      0.048659
     53 N5         -3.1050   -2.5730   -2.5590 n         1 MOL     -0.363624
     54 C17        -2.5960   -3.8050   -3.1420 c3        1 MOL     -0.071073
     55 C18        -1.7190   -4.6490   -2.1700 c         1 MOL      0.406073
     56 O9         -1.9360   -5.8840   -2.0510 o         1 MOL     -0.532121
     57 H25        -2.9170   -1.7020   -3.0350 hn        1 MOL      0.282775
     58 H26        -1.9170   -3.5420   -3.9590 h1        1 MOL      0.091100
     59 H27        -3.3650   -4.4260   -3.5900 h1        1 MOL      0.091100
     60 N6         -0.8670   -3.9910   -1.4370 n         1 MOL     -0.263828
     61 C19        -0.1280   -4.6490   -0.3220 c3        1 MOL      0.101710
     62 C20        -0.3790   -3.9660    1.0740 c         1 MOL      0.411136
     63 O10         0.4220   -4.0760    1.9770 o         1 MOL     -0.490445
     64 C21         1.3770   -4.6950   -0.7170 c3        1 MOL     -0.333290
     65 C22         2.0560   -3.3790   -0.8860 c         1 MOL      0.755018
     66 N7          3.3480   -3.3300   -0.9930 n         1 MOL     -0.738943
     67 O11         1.3970   -2.3650   -0.8860 o         1 MOL     -0.590170
     68 H28        -0.6340   -3.0270   -1.6270 hn        1 MOL      0.234065
     69 H29        -0.4820   -5.6630   -0.1560 h1        1 MOL      0.104173
     70 H30         1.4340   -5.1850   -1.6940 hc        1 MOL      0.097289
     71 H31         1.7700   -5.3340    0.0750 hc        1 MOL      0.097289
     72 H32         3.8090   -4.2230   -1.1080 hn        1 MOL      0.333148
     73 H33         3.7700   -2.4290   -0.8290 hn        1 MOL      0.333148
     74 N8         -1.5890   -3.3490    1.1810 n         1 MOL     -0.126938
     75 C23        -2.2870   -2.8790    2.3690 c3        1 MOL     -0.382414
     76 C24        -1.5310   -1.7580    3.0930 c         1 MOL      0.636118
     77 O12        -1.6500   -1.7160    4.3380 o         1 MOL     -0.551762
     78 H34        -2.2160   -3.4510    0.4030 hn        1 MOL      0.169763
     79 H35        -2.3490   -3.6750    3.1110 h1        1 MOL      0.161010
     80 H36        -3.3060   -2.6450    2.0680 h1        1 MOL      0.161010
     81 N9         -0.5670   -1.0560    2.4230 n         1 MOL     -0.386829
     82 C25         0.3490   -0.1110    3.1320 c3        1 MOL     -0.039872
     83 C26         1.6010   -0.0080    2.3250 c         1 MOL      0.742000
     84 O13         1.5460   -0.0730    1.0790 o         1 MOL     -0.562155
     85 C27        -0.3900    1.2720    3.1740 c3        1 MOL     -0.400950
     86 C28         0.4850    2.3880    3.7540 ca        1 MOL      0.209052
     87 C29         0.7260    2.5670    5.1760 ca        1 MOL     -0.245031
     88 C30         0.7300    3.5650    2.9900 ca        1 MOL     -0.245031
     89 C31         1.2390    3.7650    5.7440 ca        1 MOL     -0.236722
     90 C32         1.3040    4.7360    3.5480 ca        1 MOL     -0.236722
     91 C33         1.5070    4.8590    4.9330 ca        1 MOL      0.385729
     92 O14         2.0040    6.0640    5.3120 oh        1 MOL     -0.537503
     93 H37        -0.2590   -1.3160    1.4930 hn        1 MOL      0.240465
     94 H38         0.6070   -0.3780    4.1580 h1        1 MOL      0.102184
     95 H39        -1.3170    1.2440    3.7510 hc        1 MOL      0.155047
     96 H40        -0.7870    1.5810    2.2130 hc        1 MOL      0.155047
     97 H41         0.5240    1.7220    5.8180 ha        1 MOL      0.159333
     98 H42         0.3660    3.6100    1.9710 ha        1 MOL      0.159333
     99 H43         1.2240    3.8290    6.8270 ha        1 MOL      0.150517
    100 H44         1.3760    5.6290    2.9260 ha        1 MOL      0.150517
    101 H45         2.1070    6.7790    4.6810 ho        1 MOL      0.401441
    102 N10         2.7750    0.0880    2.9820 n         1 MOL     -0.844918
    103 C34         4.0240    0.4280    2.2480 c3        1 MOL      0.257940
    104 C35         4.4750   -0.8300    1.5780 c         1 MOL      0.599093
    105 O15         4.5910   -0.8410    0.3500 o         1 MOL     -0.571202
    106 C36         4.9470    1.2480    3.1750 c3        1 MOL     -0.061963
    107 C37         4.5580    2.7270    3.3960 c3        1 MOL     -0.156857
    108 C38         6.3950    1.0440    2.6210 c3        1 MOL     -0.100627
    109 C39         4.1390    3.5110    2.2160 c3        1 MOL      0.049850
    110 H46         2.7760    0.3430    3.9610 hn        1 MOL      0.373901
    111 H47         3.7670    1.0730    1.4070 h1        1 MOL      0.134836
    112 H48         4.9400    0.6960    4.1250 hc        1 MOL      0.010598
    113 H49         5.4030    3.2720    3.8150 hc        1 MOL      0.070786
    114 H50         3.6770    2.8000    4.0450 hc        1 MOL      0.070786
    115 H51         6.8230    0.0580    2.7810 hc        1 MOL      0.019902
    116 H52         6.4010    1.1950    1.5430 hc        1 MOL      0.019902
    117 H53         7.0470    1.7330    3.1680 hc        1 MOL      0.019902
    118 H54         3.9770    4.5800    2.3890 hc        1 MOL     -0.005954
    119 H55         4.9170    3.4640    1.4570 hc        1 MOL     -0.005954
    120 H56         3.2370    3.0140    1.8770 hc        1 MOL     -0.005954
    121 N11         4.7530   -1.8440    2.4080 n         1 MOL     -0.262108
    122 C40         5.0610   -3.1980    2.0020 c3        1 MOL     -0.203926
    123 C41         6.3180   -3.2570    1.0590 c         1 MOL      0.570292
    124 O16         6.4240   -4.1560    0.1720 o         1 MOL     -0.537137
    125 C42         5.5080   -3.9790    3.3070 c3        1 MOL      0.086367
    126 O17         6.5260   -3.3600    4.1000 oh        1 MOL     -0.598103
    127 H57         4.7710   -1.7430    3.4150 hn        1 MOL      0.250835
    128 H58         4.1710   -3.7040    1.6460 h1        1 MOL      0.125570
    129 H59         5.5570   -5.0420    3.0600 h1        1 MOL      0.066266
    130 H60         4.6260   -4.0410    3.9510 h1        1 MOL      0.066266
    131 H61         6.3460   -3.7780    4.9500 ho        1 MOL      0.421114
    132 N12         7.2790   -2.3590    1.3580 n         1 MOL     -0.306272
    133 C43         8.5900   -2.0680    0.7150 c3        1 MOL      0.073289
    134 C44         8.5150   -1.5070   -0.7010 c         1 MOL      0.523995
    135 O18         9.6050   -1.1870   -1.1270 o         1 MOL     -0.540497
    136 C45         9.5480   -3.2800    0.8080 c3        1 MOL     -0.326557
    137 H62         7.0890   -1.8940    2.2360 hn        1 MOL      0.255757
    138 H63         9.1590   -1.3520    1.3100 h1        1 MOL      0.086988
    139 H64        10.5590   -2.9100    0.6730 hc        1 MOL      0.104987
    140 H65         9.5000   -3.8120    1.7620 hc        1 MOL      0.104987
    141 H66         9.3320   -3.9570   -0.0180 hc        1 MOL      0.104987
    142 N13         7.3050   -1.1810   -1.1100 n         1 MOL     -0.454744
    143 C46         7.0380   -0.6450   -2.4580 c3        1 MOL      0.421638
    144 C47         6.6480    0.8350   -2.4200 c         1 MOL      0.418356
    145 O19         5.8670    1.2020   -1.5310 o         1 MOL     -0.498642
    146 C48         5.9280   -1.4390   -3.1400 c3        1 MOL     -0.355562
    147 H67         6.6030   -1.3660   -0.4200 hn        1 MOL      0.183106
    148 H68         7.8820   -0.7170   -3.1590 h1        1 MOL     -0.044771
    149 H69         6.2390   -2.4240   -3.4810 hc        1 MOL      0.098639
    150 H70         5.2000   -1.7110   -2.3550 hc        1 MOL      0.098639
    151 H71         5.5000   -0.8100   -3.9210 hc        1 MOL      0.098639
    152 N14         7.1350    1.6970   -3.3080 n         1 MOL     -0.375409
    153 C49         6.9810    3.1950   -3.1070 c3        1 MOL     -0.179880
    154 C50         7.7650    3.7600   -1.8770 c         1 MOL      0.337316
    155 O20         7.6180    4.9680   -1.6650 o         1 MOL     -0.485040
    156 C51         5.4850    3.6520   -3.2000 c3        1 MOL      0.206076
    157 C52         4.9800    3.5620   -4.6420 c3        1 MOL     -0.009327
    158 C53         3.5090    3.6980   -4.6510 c         1 MOL      0.672483
    159 O21         3.0240    4.8730   -4.4700 o         1 MOL     -0.701155
    160 O22         2.8510    2.6610   -4.7560 o         1 MOL     -0.701155
    161 H72         7.7170    1.3830   -4.0740 hn        1 MOL      0.292048
    162 H73         7.5190    3.6100   -3.9600 h1        1 MOL      0.140987
    163 H74         5.3250    4.6600   -2.8200 hc        1 MOL     -0.010294
    164 H75         4.8430    2.9840   -2.6340 hc        1 MOL     -0.010294
    165 H76         5.2150    2.5710   -5.0120 hc        1 MOL     -0.042088
    166 H77         5.4090    4.3010   -5.3140 hc        1 MOL     -0.042088
    167 N15         8.6430    3.0470   -1.2120 n         1 MOL     -0.019213
    168 C54         9.4210    3.3800   -0.0280 c3        1 MOL     -0.329677
    169 H78         8.7670    3.8230    0.7240 h1        1 MOL      0.132634
    170 H79         9.8760    2.4750    0.3740 h1        1 MOL      0.132634
    171 H80        10.2010    4.0930   -0.2940 h1        1 MOL      0.132634
    172 H81         8.7950    2.1160   -1.5830 hn        1 MOL      0.109399
    173 Ca1         0.9230    0.2100   -1.5330 Ca        1 MOL      1.763708
    174 O23         2.7920   -0.0960   -3.3470 oh        1 MOL     -0.853919
    175 H82         2.8220   -0.6410   -4.1210 ho        1 MOL      0.407853
    176 H83         2.7830    0.8000   -3.6800 ho        1 MOL      0.407853
    177 O24         3.1420    1.7300   -0.9530 oh        1 MOL     -0.853919
    178 H84         3.1150    2.6890   -0.9730 ho        1 MOL      0.407853
    179 H85         4.0640    1.5110   -1.0330 ho        1 MOL      0.407853
    180 O25         0.6580    1.9430   -3.6470 oh        1 MOL     -0.853919
    181 H86         1.3400    2.2570   -4.2410 ho        1 MOL      0.407853
    182 H87        -0.1280    2.4430   -3.8890 ho        1 MOL      0.407853
    183 O26         0.3570    2.7200   -0.5610 oh        1 MOL     -0.853919
    184 H88        -0.5190    3.0220   -0.3610 ho        1 MOL      0.407853
    185 H89         0.9200    3.4870   -0.4090 ho        1 MOL      0.407853
    186 O27         0.2170   -1.5550   -3.4450 oh        1 MOL     -0.853919
    187 H90         0.6420   -2.3910   -3.6730 ho        1 MOL      0.407853
    188 H91        -0.3600   -1.3750   -4.1890 ho        1 MOL      0.407853
@<TRIPOS>BOND
     1    1    2 1   
     2    1    4 1   
     3    1    5 1   
     4    1    6 1   
     5    2    3 2   
     6    2    7 1   
     7    7    8 1   
     8    7   15 1   
     9    8    9 1   
    10    8   11 1   
    11    8   16 1   
    12    9   10 2   
    13    9   19 1   
    14   11   12 1   
    15   11   17 1   
    16   11   18 1   
    17   12   13 1   
    18   12   14 1   
    19   19   20 1   
    20   19   28 1   
    21   20   21 1   
    22   20   23 1   
    23   20   29 1   
    24   21   22 2   
    25   21   41 1   
    26   23   24 1   
    27   23   30 1   
    28   23   31 1   
    29   24   25 1   
    30   24   32 1   
    31   24   33 1   
    32   25   26 1   
    33   25   34 1   
    34   25   35 1   
    35   26   27 1   
    36   26   36 1   
    37   26   37 1   
    38   27   38 1   
    39   27   39 1   
    40   27   40 1   
    41   41   42 1   
    42   41   49 1   
    43   42   43 1   
    44   42   45 1   
    45   42   50 1   
    46   43   44 2   
    47   43   53 1   
    48   45   46 1   
    49   45   51 1   
    50   45   52 1   
    51   46   47 1   
    52   46   48 1   
    53   53   54 1   
    54   53   57 1   
    55   54   55 1   
    56   54   58 1   
    57   54   59 1   
    58   55   56 2   
    59   55   60 1   
    60   60   61 1   
    61   60   68 1   
    62   61   62 1   
    63   61   64 1   
    64   61   69 1   
    65   62   63 2   
    66   62   74 1   
    67   64   65 1   
    68   64   70 1   
    69   64   71 1   
    70   65   66 1   
    71   65   67 2   
    72   66   72 1   
    73   66   73 1   
    74   74   75 1   
    75   74   78 1   
    76   75   76 1   
    77   75   79 1   
    78   75   80 1   
    79   76   77 2   
    80   76   81 1   
    81   81   82 1   
    82   81   93 1   
    83   82   83 1   
    84   82   85 1   
    85   82   94 1   
    86   83   84 2   
    87   83  102 1   
    88   85   86 1   
    89   85   95 1   
    90   85   96 1   
    91   86   87 ar  
    92   86   88 ar  
    93   87   89 ar  
    94   87   97 1   
    95   88   90 ar  
    96   88   98 1   
    97   89   91 ar  
    98   89   99 1   
    99   90   91 ar  
   100   90  100 1   
   101   91   92 1   
   102   92  101 1   
   103  102  103 1   
   104  102  110 1   
   105  103  104 1   
   106  103  106 1   
   107  103  111 1   
   108  104  105 2   
   109  104  121 1   
   110  106  107 1   
   111  106  108 1   
   112  106  112 1   
   113  107  109 1   
   114  107  113 1   
   115  107  114 1   
   116  108  115 1   
   117  108  116 1   
   118  108  117 1   
   119  109  118 1   
   120  109  119 1   
   121  109  120 1   
   122  121  122 1   
   123  121  127 1   
   124  122  123 1   
   125  122  125 1   
   126  122  128 1   
   127  123  124 2   
   128  123  132 1   
   129  125  126 1   
   130  125  129 1   
   131  125  130 1   
   132  126  131 1   
   133  132  133 1   
   134  132  137 1   
   135  133  134 1   
   136  133  136 1   
   137  133  138 1   
   138  134  135 2   
   139  134  142 1   
   140  136  139 1   
   141  136  140 1   
   142  136  141 1   
   143  142  143 1   
   144  142  147 1   
   145  143  144 1   
   146  143  146 1   
   147  143  148 1   
   148  144  145 2   
   149  144  152 1   
   150  146  149 1   
   151  146  150 1   
   152  146  151 1   
   153  152  153 1   
   154  152  161 1   
   155  153  154 1   
   156  153  156 1   
   157  153  162 1   
   158  154  155 2   
   159  154  167 1   
   160  156  157 1   
   161  156  163 1   
   162  156  164 1   
   163  157  158 1   
   164  157  165 1   
   165  157  166 1   
   166  158  159 1   
   167  158  160 1   
   168  167  168 1   
   169  167  172 1   
   170  168  169 1   
   171  168  170 1   
   172  168  171 1   
   173  174  175 1   
   174  174  176 1   
   175  177  178 1   
   176  177  179 1   
   177  180  181 1   
   178  180  182 1   
   179  183  184 1   
   180  183  185 1   
   181  186  187 1   
   182  186  188 1   
@<TRIPOS>SUBSTRUCTURE
     1 MOL         1 TEMP              0 ****  ****    0 ROOT
