@<TRIPOS>MOLECULE
MOL
  192   187     1     0     0
SMALL
resp


@<TRIPOS>ATOM
      1 C1         -3.0230   -5.4960    2.2370 c3        1 MOL      0.058273
      2 C2         -1.9860   -4.8380    1.2690 c         1 MOL      0.506146
      3 O1         -1.7610   -3.6220    1.4010 o         1 MOL     -0.510167
      4 H1         -3.6820   -6.1550    1.6700 hc        1 MOL     -0.038349
      5 H2         -2.4970   -6.0750    2.9950 hc        1 MOL     -0.038349
      6 H3         -3.6160   -4.7180    2.7180 hc        1 MOL     -0.038349
      7 N1         -1.3540   -5.5710    0.3740 n         1 MOL     -0.629895
      8 C3         -0.3890   -5.1770   -0.6490 c3        1 MOL      0.030800
      9 C4          0.9060   -4.5980   -0.0970 c         1 MOL      0.750066
     10 O2          1.8020   -4.1420   -0.8490 o         1 MOL     -0.640708
     11 C5         -1.0680   -4.3420   -1.7500 c3        1 MOL     -0.504888
     12 C6         -2.3740   -4.8580   -2.2790 c         1 MOL      0.820153
     13 O3         -3.4880   -4.3630   -1.8530 o         1 MOL     -0.704907
     14 O4         -2.3840   -5.8660   -2.9880 o         1 MOL     -0.704907
     15 H4         -1.5450   -6.5470    0.5340 hn        1 MOL      0.367682
     16 H5         -0.1360   -6.1000   -1.1680 h1        1 MOL      0.113800
     17 H6         -0.3820   -4.4180   -2.5920 hc        1 MOL      0.165137
     18 H7         -1.2150   -3.2930   -1.4750 hc        1 MOL      0.165137
     19 N2          1.1890   -4.6930    1.2180 n         1 MOL     -0.616518
     20 C7          2.4280   -4.0130    1.8080 c3        1 MOL      0.030184
     21 C8          3.5110   -5.1110    1.9200 c         1 MOL      0.476730
     22 O5          3.3070   -6.3030    2.1630 o         1 MOL     -0.562845
     23 C9          2.0680   -3.2130    3.1440 c3        1 MOL      0.034119
     24 C10         1.3340   -4.0540    4.1970 c3        1 MOL      0.135866
     25 C11         1.2860   -1.9840    2.6640 c3        1 MOL     -0.396825
     26 C12         1.2440   -3.3670    5.5670 c3        1 MOL     -0.313547
     27 H8          0.5130   -5.1080    1.8370 hn        1 MOL      0.291926
     28 H9          2.8200   -3.2680    1.1180 h1        1 MOL      0.139096
     29 H10         3.0440   -2.9990    3.5880 hc        1 MOL      0.048546
     30 H11         1.8270   -5.0070    4.3820 hc        1 MOL      0.026845
     31 H12         0.3120   -4.3100    3.9310 hc        1 MOL      0.026845
     32 H13         0.8750   -1.3420    3.4510 hc        1 MOL      0.119379
     33 H14         1.7870   -1.2740    2.0100 hc        1 MOL      0.119379
     34 H15         0.4580   -2.4350    2.1180 hc        1 MOL      0.119379
     35 H16         0.8110   -2.3670    5.4490 hc        1 MOL      0.068653
     36 H17         0.5370   -3.8500    6.2360 hc        1 MOL      0.068653
     37 H18         2.2250   -3.3660    6.0390 hc        1 MOL      0.068653
     38 N3          4.8300   -4.7110    1.9620 n         1 MOL     -0.290170
     39 C13         5.3370   -3.3860    1.8230 c3        1 MOL     -0.055592
     40 C14         5.1640   -2.7360    0.4500 c         1 MOL      0.396905
     41 O6          5.1730   -1.5550    0.4080 o         1 MOL     -0.474189
     42 C15         6.8120   -3.4330    2.1200 c3        1 MOL     -0.291018
     43 C16         7.1780   -4.3670    3.3230 c         1 MOL      0.748297
     44 O7          6.9840   -5.5570    3.2820 o         1 MOL     -0.703443
     45 O8          7.6610   -3.8300    4.3890 o         1 MOL     -0.703443
     46 H19         5.4830   -5.4550    2.1470 hn        1 MOL      0.252693
     47 H20         4.9380   -2.7400    2.5970 h1        1 MOL      0.098678
     48 H21         7.3020   -2.4870    2.3440 hc        1 MOL      0.057014
     49 H22         7.2970   -3.8040    1.2240 hc        1 MOL      0.057014
     50 N4          4.8940   -3.5630   -0.5530 n         1 MOL     -0.098269
     51 C17         4.6550   -3.1170   -1.9350 c3        1 MOL     -0.135662
     52 C18         5.9540   -2.4980   -2.4670 c         1 MOL      0.437845
     53 O9          6.9650   -3.1830   -2.5440 o         1 MOL     -0.575498
     54 H23         4.9570   -4.5610   -0.4370 hn        1 MOL      0.182264
     55 H24         3.9130   -2.3240   -1.9750 h1        1 MOL      0.092056
     56 H25         4.2350   -3.9340   -2.5230 h1        1 MOL      0.092056
     57 N5          5.9490   -1.1380   -2.6980 n         1 MOL     -0.251026
     58 C19         7.1170   -0.2910   -3.1550 c3        1 MOL      0.057177
     59 C20         7.8290    0.4300   -2.0080 c         1 MOL      0.382532
     60 O10         8.6710    1.3000   -2.2950 o         1 MOL     -0.537857
     61 C21         6.6700    0.6040   -4.3710 c3        1 MOL     -0.271245
     62 C22         5.4340    1.4530   -4.0270 c         1 MOL      0.780726
     63 O11         4.6350    1.7460   -4.8860 o         1 MOL     -0.693402
     64 O12         5.3240    1.9790   -2.9170 o         1 MOL     -0.693402
     65 H26         5.0480   -0.7510   -2.4960 hn        1 MOL      0.155546
     66 H27         7.9030   -0.9410   -3.5470 h1        1 MOL      0.084810
     67 H28         6.4940   -0.0480   -5.2260 hc        1 MOL      0.058276
     68 H29         7.4500    1.3010   -4.6800 hc        1 MOL      0.058276
     69 N6          7.5170    0.1390   -0.7620 n         1 MOL     -0.243086
     70 C23         8.0480    0.9400    0.3770 c3        1 MOL     -0.232917
     71 C24         7.4400    2.3190    0.6920 c         1 MOL      0.520722
     72 O13         7.6930    2.8910    1.7550 o         1 MOL     -0.604163
     73 H30         6.8770   -0.6210   -0.5640 hn        1 MOL      0.278450
     74 H31         9.1300    1.0560    0.3110 h1        1 MOL      0.122805
     75 H32         7.8720    0.3040    1.2440 h1        1 MOL      0.122805
     76 N7          6.5960    2.8710   -0.0850 n         1 MOL     -0.038111
     77 C25         5.8980    4.1790    0.0570 c3        1 MOL      0.300779
     78 C26         4.8710    4.2900    1.2110 c         1 MOL      0.234882
     79 O14         4.4920    5.3830    1.6760 o         1 MOL     -0.486813
     80 C27         6.8760    5.3980   -0.0700 c3        1 MOL      0.058611
     81 C28         7.3750    5.6110   -1.4930 c3        1 MOL     -0.251922
     82 C29         8.7420    6.3020   -1.7060 c         1 MOL      0.680525
     83 N8          9.0480    6.4440   -2.9720 n         1 MOL     -0.777079
     84 O15         9.4410    6.6510   -0.8030 o         1 MOL     -0.564112
     85 H33         6.4920    2.3800   -0.9600 hn        1 MOL      0.045895
     86 H34         5.3340    4.2080   -0.8710 h1        1 MOL      0.010632
     87 H35         7.6700    5.1030    0.6160 hc        1 MOL     -0.015499
     88 H36         6.3620    6.2960    0.2760 hc        1 MOL     -0.015499
     89 H37         6.5790    6.1200   -2.0210 hc        1 MOL      0.066424
     90 H38         7.5100    4.6240   -1.9450 hc        1 MOL      0.066424
     91 H39         8.2970    6.1560   -3.5800 hn        1 MOL      0.341835
     92 H40         9.8780    6.9570   -3.2600 hn        1 MOL      0.341835
     93 N9          4.3510    3.1160    1.5600 n         1 MOL     -0.166302
     94 C30         3.2650    2.8710    2.5360 c3        1 MOL     -0.055451
     95 C31         1.9110    2.3850    1.9150 c         1 MOL      0.482385
     96 O16         0.8660    2.4820    2.5870 o         1 MOL     -0.562857
     97 C32         3.6010    1.8330    3.6530 c3        1 MOL      0.202042
     98 C33         4.1950    0.5820    3.0410 c3        1 MOL     -0.234857
     99 C34         4.7240    2.3860    4.6300 c3        1 MOL     -0.234857
    100 H41         4.6740    2.2950    1.0760 hn        1 MOL      0.132450
    101 H42         2.9830    3.8080    3.0160 h1        1 MOL      0.088916
    102 H43         2.7130    1.6430    4.2580 hc        1 MOL      0.003471
    103 H44         3.5730    0.1090    2.2870 hc        1 MOL      0.053685
    104 H45         5.1770    0.8440    2.6520 hc        1 MOL      0.053685
    105 H46         4.3160   -0.0640    3.9140 hc        1 MOL      0.053685
    106 H47         4.3160    2.9700    5.4440 hc        1 MOL      0.053685
    107 H48         5.2530    1.6000    5.1610 hc        1 MOL      0.053685
    108 H49         5.5770    2.8310    4.1150 hc        1 MOL      0.053685
    109 N10         1.9210    1.8960    0.6990 n         1 MOL     -0.210781
    110 C35         0.6600    1.6280    0.0130 c3        1 MOL     -0.141510
    111 C36        -0.4950    2.6770    0.1320 c         1 MOL      0.702885
    112 O17        -0.2810    3.8640   -0.2460 o         1 MOL     -0.549440
    113 C37         0.8750    1.2200   -1.4650 c3        1 MOL     -0.385972
    114 C38         1.6310   -0.1150   -1.7290 c         1 MOL      0.616567
    115 N11         1.0350   -1.2070   -1.2440 n         1 MOL     -0.827643
    116 O18         2.6620   -0.1130   -2.4280 o         1 MOL     -0.465323
    117 H50         2.7530    2.0990    0.1580 hn        1 MOL      0.218908
    118 H51         0.2250    0.7820    0.5650 h1        1 MOL      0.072127
    119 H52         1.3570    2.0570   -1.9600 hc        1 MOL      0.158997
    120 H53        -0.1180    1.1340   -1.9070 hc        1 MOL      0.158997
    121 H54         0.1490   -1.0800   -0.7770 hn        1 MOL      0.400563
    122 H55         1.5660   -2.0620   -1.2930 hn        1 MOL      0.400563
    123 N12        -1.7100    2.2580    0.5550 n         1 MOL     -0.477455
    124 C39        -2.9050    3.0050    0.0500 c3        1 MOL     -0.086422
    125 C40        -4.2020    2.6680    0.7930 c         1 MOL      0.848464
    126 O19        -4.2830    1.5860    1.4000 o         1 MOL     -0.582308
    127 C41        -3.0990    2.8600   -1.4610 c3        1 MOL     -0.070498
    128 C42        -3.8790    3.9410   -2.0890 ca        1 MOL      0.050268
    129 C43        -3.2630    5.1500   -2.3020 ca        1 MOL     -0.174444
    130 C44        -5.2580    3.8100   -2.3220 ca        1 MOL     -0.174444
    131 C45        -3.9800    6.3020   -2.7110 ca        1 MOL     -0.223404
    132 C46        -5.9740    4.8300   -2.7640 ca        1 MOL     -0.223404
    133 C47        -5.3310    6.0980   -3.0640 ca        1 MOL      0.263714
    134 O20        -6.1050    7.1380   -3.4350 oh        1 MOL     -0.457315
    135 H56        -1.8190    1.3080    0.8840 hn        1 MOL      0.265730
    136 H57        -2.7500    4.0750    0.1600 h1        1 MOL      0.098138
    137 H58        -3.5100    1.8770   -1.7180 hc        1 MOL      0.045956
    138 H59        -2.1170    2.9010   -1.9150 hc        1 MOL      0.045956
    139 H60        -2.2070    5.2460   -2.0870 ha        1 MOL      0.137753
    140 H61        -5.6820    2.8260   -2.2090 ha        1 MOL      0.137753
    141 H62        -3.5340    7.2940   -2.7780 ha        1 MOL      0.137061
    142 H63        -7.0420    4.7390   -2.9020 ha        1 MOL      0.137061
    143 H64        -5.5270    7.8720   -3.6640 ho        1 MOL      0.342489
    144 N13        -5.1760    3.5550    0.7810 n         1 MOL     -0.937809
    145 C48        -6.4600    3.3530    1.4590 c3        1 MOL      0.538565
    146 C49        -7.6290    3.1550    0.3740 c         1 MOL      0.465763
    147 O21        -8.1210    4.1800   -0.0940 o         1 MOL     -0.497569
    148 C50        -6.6350    4.5150    2.3910 c3        1 MOL      0.052307
    149 C51        -7.9080    4.4500    3.2890 c3        1 MOL     -0.393012
    150 C52        -8.1970    5.7540    3.9390 c         1 MOL      0.853281
    151 O22        -9.3220    5.9150    4.4590 o         1 MOL     -0.729687
    152 O23        -7.3070    6.5890    4.0930 o         1 MOL     -0.729687
    153 H65        -5.1820    4.3380    0.1440 hn        1 MOL      0.414764
    154 H66        -6.3230    2.5050    2.1270 h1        1 MOL     -0.107217
    155 H67        -6.8290    5.3910    1.7730 hc        1 MOL      0.014100
    156 H68        -5.7510    4.6650    3.0130 hc        1 MOL      0.014100
    157 H69        -7.6570    3.8060    4.1300 hc        1 MOL      0.063983
    158 H70        -8.8390    4.1400    2.7980 hc        1 MOL      0.063983
    159 N14        -8.0950    1.9060    0.1570 n         1 MOL     -0.558208
    160 C53        -7.6620    0.6350    0.6580 c3        1 MOL      0.219636
    161 C54        -8.6390    0.1790    1.7480 c         1 MOL      0.341973
    162 O24        -9.8280    0.4210    1.6910 o         1 MOL     -0.469164
    163 C55        -7.5950   -0.4110   -0.4130 c3        1 MOL     -0.072423
    164 C56        -6.7630   -0.1090   -1.6360 c3        1 MOL     -0.296474
    165 C57        -6.4090   -1.2980   -2.4510 c         1 MOL      0.627571
    166 O25        -6.0270   -1.1340   -3.6350 o         1 MOL     -0.639512
    167 O26        -6.3920   -2.5140   -1.9490 o         1 MOL     -0.639512
    168 H71        -8.9270    1.9180   -0.4230 hn        1 MOL      0.315349
    169 H72        -6.6610    0.6270    1.0900 h1        1 MOL      0.013060
    170 H73        -8.6590   -0.5020   -0.6510 hc        1 MOL      0.013609
    171 H74        -7.2640   -1.3070    0.1080 hc        1 MOL      0.013609
    172 H75        -5.8050    0.2310   -1.2470 hc        1 MOL      0.115789
    173 H76        -7.2320    0.7020   -2.1940 hc        1 MOL      0.115789
    174 N15        -8.0330   -0.5760    2.6850 n         1 MOL     -0.251424
    175 C58        -8.7580   -1.5120    3.5860 c3        1 MOL     -0.062862
    176 H77        -9.4890   -2.0790    3.0080 h1        1 MOL      0.052734
    177 H78        -8.0480   -2.1990    4.0460 h1        1 MOL      0.052734
    178 H79        -9.2710   -0.9450    4.3620 h1        1 MOL      0.052734
    179 H80        -7.0130   -0.5580    2.6560 hn        1 MOL      0.270850
    180 Ca1        -5.9860   -5.0320   -1.9970 Ca        1 MOL      1.615645
    181 O27        -4.8940   -6.7400   -3.7060 oh        1 MOL     -0.922138
    182 H81        -3.9430   -6.6320   -3.5910 ho        1 MOL      0.421498
    183 H82        -5.0220   -6.7900   -4.6470 ho        1 MOL      0.421498
    184 O28        -7.0440   -4.4900    0.2750 oh        1 MOL     -0.922138
    185 H83        -6.3320   -4.4120    0.9200 ho        1 MOL      0.421498
    186 H84        -7.6980   -5.0320    0.7070 ho        1 MOL      0.421498
    187 O29        -8.1370   -5.6740   -3.4560 oh        1 MOL     -0.922138
    188 H85        -8.6980   -6.3880   -3.1670 ho        1 MOL      0.421498
    189 H86        -8.5790   -5.3200   -4.2200 ho        1 MOL      0.421498
    190 O30        -5.4540   -3.7990   -4.3650 oh        1 MOL     -0.922138
    191 H87        -5.7300   -2.8990   -4.2070 ho        1 MOL      0.421498
    192 H88        -5.2800   -3.8410   -5.2990 ho        1 MOL      0.421498
@<TRIPOS>BOND
     1    1    2 1   
     2    1    4 1   
     3    1    5 1   
     4    1    6 1   
     5    2    3 2   
     6    2    7 1   
     7    7    8 1   
     8    7   15 1   
     9    8    9 1   
    10    8   11 1   
    11    8   16 1   
    12    9   10 2   
    13    9   19 1   
    14   11   12 1   
    15   11   17 1   
    16   11   18 1   
    17   12   13 1   
    18   12   14 1   
    19   19   20 1   
    20   19   27 1   
    21   20   21 1   
    22   20   23 1   
    23   20   28 1   
    24   21   22 2   
    25   21   38 1   
    26   23   24 1   
    27   23   25 1   
    28   23   29 1   
    29   24   26 1   
    30   24   30 1   
    31   24   31 1   
    32   25   32 1   
    33   25   33 1   
    34   25   34 1   
    35   26   35 1   
    36   26   36 1   
    37   26   37 1   
    38   38   39 1   
    39   38   46 1   
    40   39   40 1   
    41   39   42 1   
    42   39   47 1   
    43   40   41 2   
    44   40   50 1   
    45   42   43 1   
    46   42   48 1   
    47   42   49 1   
    48   43   44 1   
    49   43   45 1   
    50   50   51 1   
    51   50   54 1   
    52   51   52 1   
    53   51   55 1   
    54   51   56 1   
    55   52   53 2   
    56   52   57 1   
    57   57   58 1   
    58   57   65 1   
    59   58   59 1   
    60   58   61 1   
    61   58   66 1   
    62   59   60 2   
    63   59   69 1   
    64   61   62 1   
    65   61   67 1   
    66   61   68 1   
    67   62   63 1   
    68   62   64 1   
    69   69   70 1   
    70   69   73 1   
    71   70   71 1   
    72   70   74 1   
    73   70   75 1   
    74   71   72 2   
    75   71   76 1   
    76   76   77 1   
    77   76   85 1   
    78   77   78 1   
    79   77   80 1   
    80   77   86 1   
    81   78   79 2   
    82   78   93 1   
    83   80   81 1   
    84   80   87 1   
    85   80   88 1   
    86   81   82 1   
    87   81   89 1   
    88   81   90 1   
    89   82   83 1   
    90   82   84 2   
    91   83   91 1   
    92   83   92 1   
    93   93   94 1   
    94   93  100 1   
    95   94   95 1   
    96   94   97 1   
    97   94  101 1   
    98   95   96 2   
    99   95  109 1   
   100   97   98 1   
   101   97   99 1   
   102   97  102 1   
   103   98  103 1   
   104   98  104 1   
   105   98  105 1   
   106   99  106 1   
   107   99  107 1   
   108   99  108 1   
   109  109  110 1   
   110  109  117 1   
   111  110  111 1   
   112  110  113 1   
   113  110  118 1   
   114  111  112 2   
   115  111  123 1   
   116  113  114 1   
   117  113  119 1   
   118  113  120 1   
   119  114  115 1   
   120  114  116 2   
   121  115  121 1   
   122  115  122 1   
   123  123  124 1   
   124  123  135 1   
   125  124  125 1   
   126  124  127 1   
   127  124  136 1   
   128  125  126 2   
   129  125  144 1   
   130  127  128 1   
   131  127  137 1   
   132  127  138 1   
   133  128  129 ar  
   134  128  130 ar  
   135  129  131 ar  
   136  129  139 1   
   137  130  132 ar  
   138  130  140 1   
   139  131  133 ar  
   140  131  141 1   
   141  132  133 ar  
   142  132  142 1   
   143  133  134 1   
   144  134  143 1   
   145  144  145 1   
   146  144  153 1   
   147  145  146 1   
   148  145  148 1   
   149  145  154 1   
   150  146  147 2   
   151  146  159 1   
   152  148  149 1   
   153  148  155 1   
   154  148  156 1   
   155  149  150 1   
   156  149  157 1   
   157  149  158 1   
   158  150  151 1   
   159  150  152 1   
   160  159  160 1   
   161  159  168 1   
   162  160  161 1   
   163  160  163 1   
   164  160  169 1   
   165  161  162 2   
   166  161  174 1   
   167  163  164 1   
   168  163  170 1   
   169  163  171 1   
   170  164  165 1   
   171  164  172 1   
   172  164  173 1   
   173  165  166 1   
   174  165  167 1   
   175  174  175 1   
   176  174  179 1   
   177  175  176 1   
   178  175  177 1   
   179  175  178 1   
   180  181  182 1   
   181  181  183 1   
   182  184  185 1   
   183  184  186 1   
   184  187  188 1   
   185  187  189 1   
   186  190  191 1   
   187  190  192 1   
@<TRIPOS>SUBSTRUCTURE
     1 MOL         1 TEMP              0 ****  ****    0 ROOT
