@<TRIPOS>MOLECULE
MOL
  189   185     1     0     0
SMALL
resp


@<TRIPOS>ATOM
      1 C1          9.3340    0.3010    2.3210 c3        1 MOL     -0.475025
      2 C2          8.1740    0.4050    1.3300 c         1 MOL      0.727388
      3 O1          7.0350    0.3830    1.8470 o         1 MOL     -0.668901
      4 H1          9.8110   -0.6740    2.2220 hc        1 MOL      0.123437
      5 H2         10.0630    1.0840    2.1110 hc        1 MOL      0.123437
      6 H3          8.9570    0.4200    3.3370 hc        1 MOL      0.123437
      7 N1          8.3590    0.3850   -0.0030 n         1 MOL     -0.588372
      8 C3          7.3500    0.2260   -1.1270 c3        1 MOL      0.320557
      9 C4          6.7810   -1.1800   -1.3410 c         1 MOL      0.313558
     10 O2          6.7540   -1.7160   -2.4240 o         1 MOL     -0.438726
     11 C5          7.8750    0.8190   -2.4310 c3        1 MOL     -0.257587
     12 C6          9.2820    0.3650   -2.8090 c         1 MOL      0.674692
     13 O3          9.6310    0.2290   -4.0070 o         1 MOL     -0.622917
     14 O4         10.0630   -0.1310   -2.0110 o         1 MOL     -0.622917
     15 H4          9.3160    0.3910   -0.3390 hn        1 MOL      0.241087
     16 H5          6.4970    0.8540   -0.8970 h1        1 MOL      0.018109
     17 H6          7.9740    1.8940   -2.2530 hc        1 MOL      0.077762
     18 H7          7.1900    0.6840   -3.2700 hc        1 MOL      0.077762
     19 N2          6.5300   -1.9440   -0.3040 n         1 MOL     -0.135099
     20 C7          6.1900   -3.3790   -0.4480 c3        1 MOL      0.014473
     21 C8          4.7260   -3.5980   -0.8540 c         1 MOL      0.506852
     22 O5          4.4180   -4.5240   -1.6320 o         1 MOL     -0.564991
     23 C9          6.6590   -4.2110    0.7420 c3        1 MOL      0.005199
     24 C10         8.1560   -4.3940    0.7050 c3        1 MOL      0.087968
     25 C11         8.8050   -5.0220    1.9260 c3        1 MOL      0.002279
     26 C12        10.1700   -5.5440    1.5680 c3        1 MOL     -0.006179
     27 N3         10.9560   -6.1740    2.6280 n4        1 MOL     -0.106426
     28 H8          6.7400   -1.5840    0.6190 hn        1 MOL      0.200392
     29 H9          6.7390   -3.7780   -1.3120 h1        1 MOL      0.081599
     30 H10         6.0850   -5.1290    0.8700 hc        1 MOL      0.003546
     31 H11         6.4110   -3.5710    1.5830 hc        1 MOL      0.003546
     32 H12         8.5530   -3.4020    0.5380 hc        1 MOL     -0.015543
     33 H13         8.3730   -4.9740   -0.1900 hc        1 MOL     -0.015543
     34 H14         8.0950   -5.7420    2.3250 hc        1 MOL      0.005612
     35 H15         8.8180   -4.2300    2.6720 hc        1 MOL      0.005612
     36 H16        10.7200   -4.7420    1.0820 hx        1 MOL      0.081385
     37 H17         9.9750   -6.3290    0.8390 hx        1 MOL      0.081385
     38 H18        10.8060   -7.1420    2.8540 hn        1 MOL      0.203744
     39 H19        11.9410   -6.1000    2.3930 hn        1 MOL      0.203744
     40 H20        10.8220   -5.7610    3.5380 hn        1 MOL      0.203744
     41 N4          3.6910   -2.8450   -0.4650 n         1 MOL     -0.457622
     42 C13         3.6130   -1.8580    0.6150 c3        1 MOL      0.156485
     43 C14         3.6900   -0.3680    0.0540 c         1 MOL      0.027184
     44 O6          3.6800   -0.1240   -1.1380 o         1 MOL     -0.363320
     45 C15         2.3510   -2.0950    1.4420 c3        1 MOL     -0.325602
     46 C16         0.9990   -2.1250    0.6010 c         1 MOL      0.607685
     47 O7          0.8590   -1.2740   -0.3490 o         1 MOL     -0.600402
     48 O8          0.1240   -2.9290    1.0850 o         1 MOL     -0.600402
     49 H21         2.8790   -2.8560   -1.0750 hn        1 MOL      0.378432
     50 H22         4.5170   -1.9740    1.2110 h1        1 MOL      0.050534
     51 H23         2.1680   -1.2560    2.1140 hc        1 MOL      0.100002
     52 H24         2.3990   -2.9770    2.0870 hc        1 MOL      0.100002
     53 N5          3.9140    0.6010    0.9100 n         1 MOL     -0.057337
     54 C17         3.9960    2.0390    0.5160 c3        1 MOL      0.011948
     55 C18         2.7630    2.6570   -0.0560 c         1 MOL      0.710370
     56 O9          1.7290    1.9750   -0.3160 o         1 MOL     -0.830455
     57 H25         4.1610    0.3240    1.8500 hn        1 MOL      0.218121
     58 H26         4.8420    2.1820   -0.1460 h1        1 MOL      0.037647
     59 H27         4.3560    2.6430    1.3470 h1        1 MOL      0.037647
     60 N6          2.7410    3.9160   -0.3040 n         1 MOL     -0.422584
     61 C19         1.7280    4.7660   -0.8420 c3        1 MOL      0.226539
     62 C20         2.0530    6.2080   -0.4260 c         1 MOL      0.567315
     63 O10         3.1650    6.4940   -0.0840 o         1 MOL     -0.532471
     64 C21         1.7220    4.7020   -2.4120 c3        1 MOL     -0.291383
     65 C22         1.5310    3.3030   -3.0400 c         1 MOL      0.720679
     66 O11         2.4090    2.8950   -3.8290 o         1 MOL     -0.666014
     67 O12         0.5250    2.6400   -2.8120 o         1 MOL     -0.666014
     68 H28         3.5480    4.4890   -0.0790 hn        1 MOL      0.240456
     69 H29         0.7630    4.4120   -0.4800 h1        1 MOL     -0.061999
     70 H30         2.5940    5.2180   -2.8080 hc        1 MOL      0.071582
     71 H31         0.8370    5.2420   -2.7330 hc        1 MOL      0.071582
     72 N7          1.0850    7.1650   -0.3460 n         1 MOL     -0.587021
     73 C23        -0.3020    6.9760   -0.7160 c3        1 MOL      0.097932
     74 C24        -1.1460    6.3330    0.4250 c         1 MOL      0.626452
     75 O13        -0.8000    6.2730    1.5810 o         1 MOL     -0.512965
     76 H32         1.4030    8.0920   -0.1270 hn        1 MOL      0.349080
     77 H33        -0.4130    6.4580   -1.6730 h1        1 MOL      0.033153
     78 H34        -0.7360    7.9450   -0.9160 h1        1 MOL      0.033153
     79 N8         -2.3450    5.9440    0.0530 n         1 MOL     -0.606948
     80 C25        -3.0060    4.8000    0.7850 c3        1 MOL      0.029831
     81 C26        -2.0620    3.5990    1.0410 c         1 MOL      0.455871
     82 O14        -1.3760    3.1760    0.1800 o         1 MOL     -0.506227
     83 C27        -4.2440    4.2690    0.0330 c3        1 MOL      0.226589
     84 C28        -5.1820    5.3900   -0.3150 c3        1 MOL     -0.180520
     85 O15        -5.0590    3.3480    0.7420 oh        1 MOL     -0.593129
     86 H35        -2.6090    5.9580   -0.9230 hn        1 MOL      0.302121
     87 H36        -3.3670    5.2920    1.6960 h1        1 MOL      0.109419
     88 H37        -4.0190    3.7280   -0.8920 h1        1 MOL      0.075591
     89 H38        -4.6900    2.4930    0.5150 ho        1 MOL      0.382109
     90 H39        -6.0490    5.1240   -0.9040 hc        1 MOL      0.057655
     91 H40        -5.5680    5.8750    0.5810 hc        1 MOL      0.057655
     92 H41        -4.7260    6.2060   -0.8710 hc        1 MOL      0.057655
     93 N9         -2.0590    3.2600    2.3230 n         1 MOL     -0.522751
     94 C29        -1.2280    2.1770    2.9220 c3        1 MOL      0.099010
     95 C30        -1.6060    0.7860    2.4140 c         1 MOL      0.447204
     96 O16        -1.2250    0.4760    1.2590 o         1 MOL     -0.388342
     97 C31         0.2540    2.4840    2.7990 c3        1 MOL      0.027208
     98 C32         0.6820    3.6400    3.7710 c3        1 MOL     -0.038946
     99 C33         1.1540    1.2510    3.2160 c3        1 MOL     -0.442071
    100 C34         2.0000    4.2600    3.2540 c3        1 MOL     -0.169656
    101 H42        -2.6820    3.8070    2.8950 hn        1 MOL      0.287498
    102 H43        -1.4240    2.1980    4.0020 h1        1 MOL      0.057457
    103 H44         0.5140    2.8540    1.7990 hc        1 MOL      0.284273
    104 H45         0.6530    3.3720    4.8220 hc        1 MOL      0.021953
    105 H46        -0.1230    4.3810    3.7380 hc        1 MOL      0.021953
    106 H47         1.1370    0.4040    2.5380 hc        1 MOL      0.101245
    107 H48         2.1770    1.6340    3.2910 hc        1 MOL      0.101245
    108 H49         0.6410    0.9230    4.1180 hc        1 MOL      0.101245
    109 H50         2.2990    5.1760    3.7790 hc        1 MOL      0.040915
    110 H51         2.8300    3.5670    3.3980 hc        1 MOL      0.040915
    111 H52         1.9480    4.4590    2.1880 hc        1 MOL      0.040915
    112 N10        -2.1790   -0.0850    3.2380 n         1 MOL     -0.542109
    113 C35        -2.4390   -1.5370    2.8970 c3        1 MOL      0.181399
    114 C36        -3.8780   -1.9500    2.8230 c         1 MOL      0.449887
    115 O17        -4.2690   -2.9490    3.3700 o         1 MOL     -0.549028
    116 C37        -1.5980   -2.4350    3.8470 c3        1 MOL      0.527047
    117 C38        -1.6790   -2.0860    5.3770 c3        1 MOL     -0.374481
    118 O18        -0.1950   -2.2550    3.5550 oh        1 MOL     -0.613254
    119 H53        -2.3690    0.3070    4.1490 hn        1 MOL      0.276114
    120 H54        -2.0710   -1.6610    1.8760 h1        1 MOL     -0.099116
    121 H55        -1.8610   -3.4940    3.7310 h1        1 MOL     -0.034302
    122 H56        -0.0820   -2.5690    2.6560 ho        1 MOL      0.307600
    123 H57        -1.3280   -1.0460    5.3590 hc        1 MOL      0.085080
    124 H58        -2.7200   -2.1630    5.6840 hc        1 MOL      0.085080
    125 H59        -1.0100   -2.7690    5.8920 hc        1 MOL      0.085080
    126 N11        -4.7630   -1.1690    2.1860 n         1 MOL     -0.157976
    127 C39        -6.1810   -1.4990    1.9850 c3        1 MOL     -0.294893
    128 C40        -6.6120   -1.4330    0.5760 c         1 MOL      0.550158
    129 O19        -6.2570   -0.5550   -0.1720 o         1 MOL     -0.429999
    130 C41        -7.1630   -0.7320    2.9600 c3        1 MOL      0.403381
    131 C42        -6.7510   -0.9370    4.4390 c3        1 MOL     -0.253714
    132 O20        -7.2250    0.6360    2.6530 oh        1 MOL     -0.610295
    133 H60        -4.4780   -0.2270    1.9490 hn        1 MOL      0.204325
    134 H61        -6.3170   -2.5090    2.3610 h1        1 MOL      0.109694
    135 H62        -8.1080   -1.2250    2.7680 h1        1 MOL      0.014377
    136 H63        -6.4340    1.1340    2.8790 ho        1 MOL      0.384100
    137 H64        -6.5450   -1.9990    4.5800 hc        1 MOL      0.061870
    138 H65        -5.8130   -0.4580    4.7080 hc        1 MOL      0.061870
    139 H66        -7.5660   -0.7320    5.1350 hc        1 MOL      0.061870
    140 N12        -7.2780   -2.4670    0.0100 n         1 MOL     -0.418843
    141 C43        -7.4650   -2.6630   -1.4270 c3        1 MOL      0.109709
    142 C44        -6.2130   -2.3600   -2.2830 c         1 MOL      0.422242
    143 O21        -6.3360   -1.6300   -3.2470 o         1 MOL     -0.484159
    144 C45        -8.7630   -1.9620   -1.9680 c3        1 MOL     -0.405502
    145 C46       -10.0100   -2.3400   -1.1450 c3        1 MOL      0.253306
    146 C47       -11.3560   -2.3660   -1.9590 c3        1 MOL     -0.184147
    147 C48       -12.5230   -2.6530   -1.1090 c3        1 MOL     -0.022829
    148 N13       -12.9950   -4.0870   -1.0990 n4        1 MOL     -0.288989
    149 H67        -7.6460   -3.2240    0.5740 hn        1 MOL      0.244130
    150 H68        -7.5980   -3.7470   -1.4500 h1        1 MOL      0.042412
    151 H69        -9.0390   -2.1530   -3.0120 hc        1 MOL      0.152958
    152 H70        -8.7790   -0.8770   -1.8610 hc        1 MOL      0.152958
    153 H71       -10.1290   -1.7500   -0.2360 hc        1 MOL     -0.039930
    154 H72        -9.7650   -3.3230   -0.7320 hc        1 MOL     -0.039930
    155 H73       -11.1500   -3.0610   -2.7680 hc        1 MOL      0.082817
    156 H74       -11.5300   -1.3520   -2.3040 hc        1 MOL      0.082817
    157 H75       -13.3600   -2.0720   -1.5060 hx        1 MOL      0.108760
    158 H76       -12.2840   -2.3890   -0.0750 hx        1 MOL      0.108760
    159 H77       -13.3890   -4.2960   -2.0050 hn        1 MOL      0.260584
    160 H78       -12.1510   -4.6410   -1.0160 hn        1 MOL      0.260584
    161 H79       -13.6850   -4.3930   -0.4250 hn        1 MOL      0.260584
    162 N14        -5.0300   -2.6870   -1.7740 n         1 MOL     -0.395915
    163 C49        -3.7910   -2.2410   -2.3420 c3        1 MOL      0.071746
    164 C50        -2.7440   -2.0190   -1.1710 c         1 MOL      0.300234
    165 O22        -2.3070   -0.9220   -0.9240 o         1 MOL     -0.561344
    166 C51        -3.3320   -3.1820   -3.4910 c3        1 MOL     -0.138603
    167 C52        -1.8350   -2.8930   -3.8060 c3        1 MOL     -0.073084
    168 C53        -1.5690   -1.4640   -4.2380 c         1 MOL      0.667462
    169 O23        -1.8110   -1.0900   -5.4210 o         1 MOL     -0.621158
    170 O24        -1.0800   -0.7060   -3.3500 o         1 MOL     -0.621158
    171 H80        -4.9530   -3.1790   -0.8960 hn        1 MOL      0.253605
    172 H81        -3.8690   -1.2510   -2.7930 h1        1 MOL      0.178073
    173 H82        -3.8820   -2.9610   -4.4080 hc        1 MOL      0.047451
    174 H83        -3.5870   -4.2210   -3.2600 hc        1 MOL      0.047451
    175 H84        -1.5680   -3.5680   -4.6240 hc        1 MOL      0.023422
    176 H85        -1.2260   -3.0750   -2.9230 hc        1 MOL      0.023422
    177 N15        -2.3310   -3.0520   -0.4070 n         1 MOL     -0.140857
    178 C54        -2.6910   -4.5390   -0.5160 c3        1 MOL     -0.182352
    179 H86        -2.2870   -5.0740    0.3430 h1        1 MOL      0.077623
    180 H87        -3.7750   -4.6510   -0.5360 h1        1 MOL      0.077623
    181 H88        -2.2660   -4.9500   -1.4320 h1        1 MOL      0.077623
    182 H89        -1.6670   -2.8910    0.3370 hn        1 MOL      0.258396
    183 Ca1        -0.3300    0.7360   -1.2910 Ca        1 MOL      1.732433
    184 O25        -2.5270    2.0190   -2.7500 oh        1 MOL     -0.864556
    185 H90        -2.6050    2.9460   -2.9420 ho        1 MOL      0.401888
    186 H91        -2.4600    1.5990   -3.6070 ho        1 MOL      0.401888
    187 O26         1.7310    0.1780   -2.9240 oh        1 MOL     -0.864556
    188 H92         2.0200    1.0410   -3.2300 ho        1 MOL      0.401888
    189 H93         2.4780   -0.1640   -2.4280 ho        1 MOL      0.401888
@<TRIPOS>BOND
     1    1    2 1   
     2    1    4 1   
     3    1    5 1   
     4    1    6 1   
     5    2    3 2   
     6    2    7 1   
     7    7    8 1   
     8    7   15 1   
     9    8    9 1   
    10    8   11 1   
    11    8   16 1   
    12    9   10 2   
    13    9   19 1   
    14   11   12 1   
    15   11   17 1   
    16   11   18 1   
    17   12   13 1   
    18   12   14 1   
    19   19   20 1   
    20   19   28 1   
    21   20   21 1   
    22   20   23 1   
    23   20   29 1   
    24   21   22 2   
    25   21   41 1   
    26   23   24 1   
    27   23   30 1   
    28   23   31 1   
    29   24   25 1   
    30   24   32 1   
    31   24   33 1   
    32   25   26 1   
    33   25   34 1   
    34   25   35 1   
    35   26   27 1   
    36   26   36 1   
    37   26   37 1   
    38   27   38 1   
    39   27   39 1   
    40   27   40 1   
    41   41   42 1   
    42   41   49 1   
    43   42   43 1   
    44   42   45 1   
    45   42   50 1   
    46   43   44 2   
    47   43   53 1   
    48   45   46 1   
    49   45   51 1   
    50   45   52 1   
    51   46   47 1   
    52   46   48 1   
    53   53   54 1   
    54   53   57 1   
    55   54   55 1   
    56   54   58 1   
    57   54   59 1   
    58   55   56 2   
    59   55   60 1   
    60   60   61 1   
    61   60   68 1   
    62   61   62 1   
    63   61   64 1   
    64   61   69 1   
    65   62   63 2   
    66   62   72 1   
    67   64   65 1   
    68   64   70 1   
    69   64   71 1   
    70   65   66 1   
    71   65   67 1   
    72   72   73 1   
    73   72   76 1   
    74   73   74 1   
    75   73   77 1   
    76   73   78 1   
    77   74   75 2   
    78   74   79 1   
    79   79   80 1   
    80   79   86 1   
    81   80   81 1   
    82   80   83 1   
    83   80   87 1   
    84   81   82 2   
    85   81   93 1   
    86   83   84 1   
    87   83   85 1   
    88   83   88 1   
    89   84   90 1   
    90   84   91 1   
    91   84   92 1   
    92   85   89 1   
    93   93   94 1   
    94   93  101 1   
    95   94   95 1   
    96   94   97 1   
    97   94  102 1   
    98   95   96 2   
    99   95  112 1   
   100   97   98 1   
   101   97   99 1   
   102   97  103 1   
   103   98  100 1   
   104   98  104 1   
   105   98  105 1   
   106   99  106 1   
   107   99  107 1   
   108   99  108 1   
   109  100  109 1   
   110  100  110 1   
   111  100  111 1   
   112  112  113 1   
   113  112  119 1   
   114  113  114 1   
   115  113  116 1   
   116  113  120 1   
   117  114  115 2   
   118  114  126 1   
   119  116  117 1   
   120  116  118 1   
   121  116  121 1   
   122  117  123 1   
   123  117  124 1   
   124  117  125 1   
   125  118  122 1   
   126  126  127 1   
   127  126  133 1   
   128  127  128 1   
   129  127  130 1   
   130  127  134 1   
   131  128  129 2   
   132  128  140 1   
   133  130  131 1   
   134  130  132 1   
   135  130  135 1   
   136  131  137 1   
   137  131  138 1   
   138  131  139 1   
   139  132  136 1   
   140  140  141 1   
   141  140  149 1   
   142  141  142 1   
   143  141  144 1   
   144  141  150 1   
   145  142  143 2   
   146  142  162 1   
   147  144  145 1   
   148  144  151 1   
   149  144  152 1   
   150  145  146 1   
   151  145  153 1   
   152  145  154 1   
   153  146  147 1   
   154  146  155 1   
   155  146  156 1   
   156  147  148 1   
   157  147  157 1   
   158  147  158 1   
   159  148  159 1   
   160  148  160 1   
   161  148  161 1   
   162  162  163 1   
   163  162  171 1   
   164  163  164 1   
   165  163  166 1   
   166  163  172 1   
   167  164  165 2   
   168  164  177 1   
   169  166  167 1   
   170  166  173 1   
   171  166  174 1   
   172  167  168 1   
   173  167  175 1   
   174  167  176 1   
   175  168  169 1   
   176  168  170 1   
   177  177  178 1   
   178  177  182 1   
   179  178  179 1   
   180  178  180 1   
   181  178  181 1   
   182  184  185 1   
   183  184  186 1   
   184  187  188 1   
   185  187  189 1   
@<TRIPOS>SUBSTRUCTURE
     1 MOL         1 TEMP              0 ****  ****    0 ROOT
