@<TRIPOS>MOLECULE
MOL
  188   182     1     0     0
SMALL
resp


@<TRIPOS>ATOM
      1 C1         -4.1200    2.5890   -3.6930 c3        1 MOL     -0.330703
      2 C2         -5.2020    2.2800   -2.5990 c         1 MOL      0.710015
      3 O1         -4.8450    1.5810   -1.6310 o         1 MOL     -0.568769
      4 H1         -3.1250    2.4720   -3.2620 hc        1 MOL      0.087393
      5 H2         -4.2370    1.8980   -4.5270 hc        1 MOL      0.087393
      6 H3         -4.2440    3.6120   -4.0470 hc        1 MOL      0.087393
      7 N1         -6.4480    2.6620   -2.8200 n         1 MOL     -0.685229
      8 C3         -7.4410    2.6780   -1.7860 c3        1 MOL      0.111142
      9 C4         -7.7360    1.2350   -1.2060 c         1 MOL      0.516429
     10 O2         -8.4220    1.1320   -0.1920 o         1 MOL     -0.537859
     11 C5         -7.3040    3.6960   -0.6840 c3        1 MOL     -0.130650
     12 C6         -6.7860    5.0640   -1.1770 c         1 MOL      0.712887
     13 O3         -5.5790    5.1020   -1.4550 o         1 MOL     -0.678406
     14 O4         -7.4890    6.0720   -1.1600 o         1 MOL     -0.678406
     15 H4         -6.7180    3.1030   -3.6780 hn        1 MOL      0.375626
     16 H5         -8.4260    2.8400   -2.2000 h1        1 MOL      0.051157
     17 H6         -6.5290    3.3340   -0.0140 hc        1 MOL      0.037958
     18 H7         -8.2230    3.8150   -0.1070 hc        1 MOL      0.037958
     19 N2         -7.3150    0.1510   -1.7950 n         1 MOL     -0.507319
     20 C7         -7.5170   -1.2420   -1.3690 c3        1 MOL      0.115633
     21 C8         -6.3670   -1.7810   -0.5280 c         1 MOL      0.475236
     22 O5         -6.5920   -2.8580    0.0030 o         1 MOL     -0.555583
     23 C9         -7.7850   -2.1770   -2.6330 c3        1 MOL     -0.028159
     24 C10        -8.8520   -1.7590   -3.6450 c3        1 MOL     -0.032243
     25 C11        -9.1640   -2.7490   -4.7460 c3        1 MOL     -0.020334
     26 C12        -9.9270   -3.8850   -4.3020 c3        1 MOL      0.138408
     27 N3        -10.0070   -4.8120   -5.4430 n4        1 MOL     -0.418946
     28 H8         -6.6270    0.3620   -2.5100 hn        1 MOL      0.256628
     29 H9         -8.3830   -1.2290   -0.7070 h1        1 MOL      0.105783
     30 H10        -8.0080   -3.1210   -2.1340 hc        1 MOL      0.015490
     31 H11        -6.8530   -2.3110   -3.1880 hc        1 MOL      0.015490
     32 H12        -8.3860   -0.9010   -4.1290 hc        1 MOL      0.025873
     33 H13        -9.7550   -1.4470   -3.1340 hc        1 MOL      0.025873
     34 H14        -8.2220   -3.0270   -5.2160 hc        1 MOL      0.022734
     35 H15        -9.8140   -2.2850   -5.5010 hc        1 MOL      0.022734
     36 H16       -10.8810   -3.6920   -3.8150 hx        1 MOL      0.064055
     37 H17        -9.3110   -4.2950   -3.5040 hx        1 MOL      0.064055
     38 H18       -10.5440   -4.4130   -6.1870 hn        1 MOL      0.304413
     39 H19        -9.0880   -5.0320   -5.8060 hn        1 MOL      0.304413
     40 H20       -10.4410   -5.6680   -5.1360 hn        1 MOL      0.304413
     41 N4         -5.1780   -1.1400   -0.4820 n         1 MOL     -0.306801
     42 C13        -4.0660   -1.6610    0.2450 c3        1 MOL     -0.064264
     43 C14        -4.2850   -2.0380    1.7140 c         1 MOL      0.620693
     44 O6         -4.9610   -1.2910    2.3850 o         1 MOL     -0.503493
     45 C15        -2.9370   -0.6620    0.2460 c3        1 MOL     -0.174819
     46 C16        -1.6260   -1.3000    0.8720 c         1 MOL      0.693805
     47 O7         -0.7740   -1.8980    0.1720 o         1 MOL     -0.671028
     48 O8         -1.4460   -1.2740    2.1380 o         1 MOL     -0.671028
     49 H21        -5.1130   -0.2370   -0.9310 hn        1 MOL      0.278630
     50 H22        -3.7290   -2.5000   -0.3700 h1        1 MOL      0.048506
     51 H23        -3.1870    0.2560    0.7690 hc        1 MOL      0.080696
     52 H24        -2.7350   -0.3310   -0.7750 hc        1 MOL      0.080696
     53 N5         -3.6900   -3.0900    2.1710 n         1 MOL     -0.318104
     54 C17        -3.9110   -3.5990    3.4980 c3        1 MOL     -0.214091
     55 C18        -3.6000   -2.7490    4.7470 c         1 MOL      0.518685
     56 O9         -4.0820   -3.1160    5.8530 o         1 MOL     -0.560340
     57 H25        -3.2010   -3.6620    1.5000 hn        1 MOL      0.240893
     58 H26        -3.2840   -4.4660    3.6590 h1        1 MOL      0.108891
     59 H27        -4.9350   -3.9640    3.4350 h1        1 MOL      0.108891
     60 N6         -2.7980   -1.6750    4.5330 n         1 MOL     -0.277928
     61 C19        -2.5430   -0.6080    5.5730 c3        1 MOL      0.031272
     62 C20        -2.6090    0.7910    4.8250 c         1 MOL      0.434128
     63 O10        -2.5210    1.8280    5.4590 o         1 MOL     -0.534758
     64 C21        -1.2670   -0.8840    6.3420 c3        1 MOL     -0.244310
     65 C22        -0.0370   -0.5390    5.5220 c         1 MOL      0.597704
     66 N7          0.7630    0.4180    5.9130 n         1 MOL     -0.648566
     67 O11         0.2970   -1.1140    4.4960 o         1 MOL     -0.650737
     68 H28        -2.3630   -1.6780    3.6210 hn        1 MOL      0.284591
     69 H29        -3.4450   -0.6990    6.1720 h1        1 MOL      0.110420
     70 H30        -1.2010   -1.9470    6.5390 hc        1 MOL      0.103390
     71 H31        -1.2930   -0.3530    7.2920 hc        1 MOL      0.103390
     72 H32         0.7170    0.9800    6.7480 hn        1 MOL      0.323535
     73 H33         1.6460    0.3890    5.4320 hn        1 MOL      0.323535
     74 N8         -2.8720    0.8690    3.5440 n         1 MOL     -0.054439
     75 C23        -2.7710    2.0970    2.7180 c3        1 MOL     -0.314920
     76 C24        -1.3880    2.4060    2.1860 c         1 MOL      0.820468
     77 O12        -0.3670    1.8380    2.5720 o         1 MOL     -0.616951
     78 H34        -3.1070    0.0560    2.9990 hn        1 MOL     -0.018493
     79 H35        -3.1990    2.9780    3.2140 h1        1 MOL      0.159338
     80 H36        -3.4140    1.9750    1.8590 h1        1 MOL      0.159338
     81 N9         -1.3270    3.2860    1.1750 n         1 MOL     -0.678546
     82 C25        -0.0680    3.9040    0.6820 c3        1 MOL      0.085612
     83 C26         0.7400    3.0010   -0.2650 c         1 MOL      0.843764
     84 O13         0.1570    2.2700   -1.0190 o         1 MOL     -0.531619
     85 C27        -0.4510    5.2680    0.0690 c3        1 MOL     -0.281104
     86 C28         0.6120    6.1090   -0.6150 ca        1 MOL      0.040969
     87 C29         1.1640    7.1520    0.0740 ca        1 MOL     -0.089884
     88 C30         0.9670    5.8610   -1.9670 ca        1 MOL     -0.089884
     89 C31         2.1280    7.9630   -0.5730 ca        1 MOL     -0.281300
     90 C32         1.9270    6.6340   -2.5970 ca        1 MOL     -0.281300
     91 C33         2.6120    7.6550   -1.8670 ca        1 MOL      0.352475
     92 O14         3.7030    8.3530   -2.3280 oh        1 MOL     -0.548593
     93 H37        -2.1350    3.7250    0.7770 hn        1 MOL      0.344684
     94 H38         0.5870    4.0740    1.5260 h1        1 MOL      0.046713
     95 H39        -1.0090    5.8410    0.8220 hc        1 MOL      0.136001
     96 H40        -1.1510    4.9700   -0.7000 hc        1 MOL      0.136001
     97 H41         0.8460    7.4700    1.0500 ha        1 MOL      0.119672
     98 H42         0.4720    5.0430   -2.4700 ha        1 MOL      0.119672
     99 H43         2.4160    8.8970   -0.1110 ha        1 MOL      0.152003
    100 H44         2.4080    6.3510   -3.5240 ha        1 MOL      0.152003
    101 H45         3.8000    8.5050   -3.2740 ho        1 MOL      0.409234
    102 N10         2.0770    2.8620   -0.1070 n         1 MOL     -0.513407
    103 C34         2.9490    1.8780   -0.8650 c3        1 MOL     -0.752774
    104 C35         4.1140    1.3170   -0.0610 c         1 MOL      0.801282
    105 O15         4.5880    0.1780   -0.2880 o         1 MOL     -0.460366
    106 C36         3.3730    2.5460   -2.2310 c3        1 MOL     -0.043013
    107 C37         4.0740    1.6430   -3.2890 c3        1 MOL      0.400986
    108 C38         4.3020    3.7880   -1.8560 c3        1 MOL     -0.307965
    109 C39         4.1960    2.2820   -4.6850 c3        1 MOL     -0.438008
    110 H46         2.6000    3.4490    0.5180 hn        1 MOL      0.207514
    111 H47         2.3310    1.0250   -1.1320 h1        1 MOL      0.325797
    112 H48         2.4850    2.9430   -2.7300 hc        1 MOL      0.138562
    113 H49         3.5550    0.6860   -3.3490 hc        1 MOL     -0.039737
    114 H50         5.0660    1.3000   -3.0000 hc        1 MOL     -0.039737
    115 H51         5.3250    3.5120   -1.6080 hc        1 MOL      0.075224
    116 H52         4.3280    4.5320   -2.6560 hc        1 MOL      0.075224
    117 H53         3.8050    4.3080   -1.0410 hc        1 MOL      0.075224
    118 H54         3.5460    3.1530   -4.6960 hc        1 MOL      0.100157
    119 H55         5.2190    2.5190   -4.9620 hc        1 MOL      0.100157
    120 H56         3.8200    1.4680   -5.3080 hc        1 MOL      0.100157
    121 N11         4.6640    2.0980    0.8810 n         1 MOL     -0.605876
    122 C40         5.7880    1.6750    1.7480 c3        1 MOL      0.089303
    123 C41         6.9870    1.0670    1.0130 c         1 MOL      0.460396
    124 O16         7.5560    0.1100    1.5090 o         1 MOL     -0.499574
    125 C42         6.2610    2.8340    2.6150 c3        1 MOL      0.280382
    126 O17         5.2250    3.0880    3.5520 oh        1 MOL     -0.585423
    127 H57         4.1770    2.9490    1.1360 hn        1 MOL      0.417744
    128 H58         5.3650    0.9850    2.4820 h1        1 MOL      0.020326
    129 H59         6.3920    3.6940    1.9520 h1        1 MOL      0.022838
    130 H60         7.1970    2.5500    3.0960 h1        1 MOL      0.022838
    131 H61         4.3680    3.2780    3.1760 ho        1 MOL      0.360675
    132 N12         7.4160    1.4940   -0.1830 n         1 MOL     -0.598564
    133 C43         8.2220    0.6860   -1.0910 c3        1 MOL      0.452173
    134 C44         8.1010   -0.8860   -1.1550 c         1 MOL      0.333197
    135 O18         9.0750   -1.5190   -1.5340 o         1 MOL     -0.497790
    136 C45         9.6980    1.2670   -1.1860 c3        1 MOL     -0.340161
    137 H62         6.9610    2.3300   -0.5330 hn        1 MOL      0.314677
    138 H63         7.8180    0.8500   -2.0840 h1        1 MOL     -0.000126
    139 H64        10.2600    0.7180   -1.9380 hc        1 MOL      0.086859
    140 H65         9.7040    2.3270   -1.4270 hc        1 MOL      0.086859
    141 H66        10.2410    1.1140   -0.2530 hc        1 MOL      0.086859
    142 N13         6.9540   -1.4420   -0.7260 n         1 MOL     -0.217658
    143 C46         6.6420   -2.8880   -0.7540 c3        1 MOL      0.280812
    144 C47         5.5830   -3.3050   -1.8640 c         1 MOL      0.426124
    145 O19         4.9680   -2.4720   -2.5510 o         1 MOL     -0.497226
    146 C48         6.2180   -3.3100    0.6970 c3        1 MOL     -0.141675
    147 H67         6.1400   -0.8880   -0.5200 hn        1 MOL      0.043419
    148 H68         7.5570   -3.3770   -1.0820 h1        1 MOL     -0.015103
    149 H69         5.1580   -3.0900    0.8070 hc        1 MOL      0.045810
    150 H70         6.4580   -4.3720    0.7650 hc        1 MOL      0.045810
    151 H71         6.8060   -2.8790    1.5140 hc        1 MOL      0.045810
    152 N14         5.3160   -4.6020   -2.0330 n         1 MOL     -0.449596
    153 C49         4.2940   -5.1420   -2.9120 c3        1 MOL     -0.107940
    154 C50         4.5060   -4.8090   -4.4060 c         1 MOL      0.531443
    155 O20         3.6270   -4.9590   -5.2930 o         1 MOL     -0.502634
    156 C51         2.8900   -4.8600   -2.4240 c3        1 MOL      0.069007
    157 C52         2.6970   -5.2970   -1.0240 c3        1 MOL      0.048418
    158 C53         1.2540   -4.9590   -0.4770 c         1 MOL      0.542067
    159 O21         0.2520   -5.6510   -0.8930 o         1 MOL     -0.672146
    160 O22         1.1900   -4.2630    0.5660 o         1 MOL     -0.672146
    161 H72         5.8440   -5.2040   -1.4200 hn        1 MOL      0.299514
    162 H73         4.4280   -6.2240   -2.8750 h1        1 MOL      0.082020
    163 H74         2.1450   -5.2180   -3.1270 hc        1 MOL      0.031852
    164 H75         2.8140   -3.7840   -2.6060 hc        1 MOL      0.031852
    165 H76         3.3950   -4.8070   -0.3380 hc        1 MOL     -0.040097
    166 H77         2.7410   -6.3680   -0.8340 hc        1 MOL     -0.040097
    167 N15         5.7750   -4.4700   -4.7450 n         1 MOL     -0.451434
    168 C54         6.0440   -3.7130   -6.0390 c3        1 MOL     -0.031795
    169 H78         7.0630   -3.9120   -6.3710 h1        1 MOL      0.070262
    170 H79         5.3410   -4.0410   -6.8050 h1        1 MOL      0.070262
    171 H80         5.9210   -2.6430   -5.8670 h1        1 MOL      0.070262
    172 H81         6.3940   -4.3790   -3.9460 hn        1 MOL      0.267230
    173 Ca1         1.0080   -2.3390    2.1170 Ca        1 MOL      1.695149
    174 O23         1.4660    0.2120    1.8660 oh        1 MOL     -0.824074
    175 H82         2.1810    0.6000    2.3670 ho        1 MOL      0.410293
    176 H83         0.6870    0.6960    2.1390 ho        1 MOL      0.410293
    177 O24         2.4190   -1.6430   -0.2080 oh        1 MOL     -0.824074
    178 H84         2.1280   -1.6310   -1.1160 ho        1 MOL      0.410293
    179 H85         3.2730   -1.2110   -0.2150 ho        1 MOL      0.410293
    180 O25         3.6680   -1.6450    2.8930 oh        1 MOL     -0.824074
    181 H86         3.6280   -0.8010    3.3250 ho        1 MOL      0.410293
    182 H87         4.4500   -2.0750    3.2590 ho        1 MOL      0.410293
    183 O26         1.9180   -3.6080    4.3210 oh        1 MOL     -0.824074
    184 H88         1.2380   -4.1560    4.6970 ho        1 MOL      0.410293
    185 H89         2.5140   -3.4210    5.0500 ho        1 MOL      0.410293
    186 O27        -0.8110   -4.1680    2.9120 oh        1 MOL     -0.824074
    187 H90        -1.0170   -4.9180    3.4650 ho        1 MOL      0.410293
    188 H91        -1.1520   -4.4100    2.0490 ho        1 MOL      0.410293
@<TRIPOS>BOND
     1    1    2 1   
     2    1    4 1   
     3    1    5 1   
     4    1    6 1   
     5    2    3 2   
     6    2    7 1   
     7    7    8 1   
     8    7   15 1   
     9    8    9 1   
    10    8   11 1   
    11    8   16 1   
    12    9   10 2   
    13    9   19 1   
    14   11   12 1   
    15   11   17 1   
    16   11   18 1   
    17   12   13 1   
    18   12   14 1   
    19   19   20 1   
    20   19   28 1   
    21   20   21 1   
    22   20   23 1   
    23   20   29 1   
    24   21   22 2   
    25   21   41 1   
    26   23   24 1   
    27   23   30 1   
    28   23   31 1   
    29   24   25 1   
    30   24   32 1   
    31   24   33 1   
    32   25   26 1   
    33   25   34 1   
    34   25   35 1   
    35   26   27 1   
    36   26   36 1   
    37   26   37 1   
    38   27   38 1   
    39   27   39 1   
    40   27   40 1   
    41   41   42 1   
    42   41   49 1   
    43   42   43 1   
    44   42   45 1   
    45   42   50 1   
    46   43   44 2   
    47   43   53 1   
    48   45   46 1   
    49   45   51 1   
    50   45   52 1   
    51   46   47 1   
    52   46   48 1   
    53   53   54 1   
    54   53   57 1   
    55   54   55 1   
    56   54   58 1   
    57   54   59 1   
    58   55   56 2   
    59   55   60 1   
    60   60   61 1   
    61   60   68 1   
    62   61   62 1   
    63   61   64 1   
    64   61   69 1   
    65   62   63 2   
    66   62   74 1   
    67   64   65 1   
    68   64   70 1   
    69   64   71 1   
    70   65   66 1   
    71   65   67 2   
    72   66   72 1   
    73   66   73 1   
    74   74   75 1   
    75   74   78 1   
    76   75   76 1   
    77   75   79 1   
    78   75   80 1   
    79   76   77 2   
    80   76   81 1   
    81   81   82 1   
    82   81   93 1   
    83   82   83 1   
    84   82   85 1   
    85   82   94 1   
    86   83   84 2   
    87   83  102 1   
    88   85   86 1   
    89   85   95 1   
    90   85   96 1   
    91   86   87 ar  
    92   86   88 ar  
    93   87   89 ar  
    94   87   97 1   
    95   88   90 ar  
    96   88   98 1   
    97   89   91 ar  
    98   89   99 1   
    99   90   91 ar  
   100   90  100 1   
   101   91   92 1   
   102   92  101 1   
   103  102  103 1   
   104  102  110 1   
   105  103  104 1   
   106  103  106 1   
   107  103  111 1   
   108  104  105 2   
   109  104  121 1   
   110  106  107 1   
   111  106  108 1   
   112  106  112 1   
   113  107  109 1   
   114  107  113 1   
   115  107  114 1   
   116  108  115 1   
   117  108  116 1   
   118  108  117 1   
   119  109  118 1   
   120  109  119 1   
   121  109  120 1   
   122  121  122 1   
   123  121  127 1   
   124  122  123 1   
   125  122  125 1   
   126  122  128 1   
   127  123  124 2   
   128  123  132 1   
   129  125  126 1   
   130  125  129 1   
   131  125  130 1   
   132  126  131 1   
   133  132  133 1   
   134  132  137 1   
   135  133  134 1   
   136  133  136 1   
   137  133  138 1   
   138  134  135 2   
   139  134  142 1   
   140  136  139 1   
   141  136  140 1   
   142  136  141 1   
   143  142  143 1   
   144  142  147 1   
   145  143  144 1   
   146  143  146 1   
   147  143  148 1   
   148  144  145 2   
   149  144  152 1   
   150  146  149 1   
   151  146  150 1   
   152  146  151 1   
   153  152  153 1   
   154  152  161 1   
   155  153  154 1   
   156  153  156 1   
   157  153  162 1   
   158  154  155 2   
   159  154  167 1   
   160  156  157 1   
   161  156  163 1   
   162  156  164 1   
   163  157  158 1   
   164  157  165 1   
   165  157  166 1   
   166  158  159 1   
   167  158  160 1   
   168  167  168 1   
   169  167  172 1   
   170  168  169 1   
   171  168  170 1   
   172  168  171 1   
   173  174  175 1   
   174  174  176 1   
   175  177  178 1   
   176  177  179 1   
   177  180  181 1   
   178  180  182 1   
   179  183  184 1   
   180  183  185 1   
   181  186  187 1   
   182  186  188 1   
@<TRIPOS>SUBSTRUCTURE
     1 MOL         1 TEMP              0 ****  ****    0 ROOT
