@<TRIPOS>MOLECULE
MOL
  179   176     1     0     0
SMALL
resp


@<TRIPOS>ATOM
      1 C1          1.7910   -2.9850    6.5460 c3        1 MOL     -0.405857
      2 C2          1.8570   -2.7940    4.9780 c         1 MOL      0.741181
      3 O1          0.8760   -3.0230    4.2660 o         1 MOL     -0.603109
      4 H1          2.7540   -2.7250    6.9850 hc        1 MOL      0.118138
      5 H2          1.0190   -2.3360    6.9600 hc        1 MOL      0.118138
      6 H3          1.5560   -4.0230    6.7770 hc        1 MOL      0.118138
      7 N1          3.0140   -2.3780    4.4340 n         1 MOL     -0.576355
      8 C3          3.2190   -2.3050    3.0150 c3        1 MOL     -0.000614
      9 C4          3.6910   -3.5550    2.3260 c         1 MOL      0.607194
     10 O2          4.6310   -4.2770    2.7570 o         1 MOL     -0.558355
     11 C5          4.2160   -1.1160    2.7060 c3        1 MOL     -0.110097
     12 C6          3.9660   -0.5170    1.3500 c         1 MOL      0.236538
     13 O3          4.1760    0.7190    1.1790 o         1 MOL     -0.551347
     14 O4          3.5910   -1.2680    0.4160 o         1 MOL     -0.551347
     15 H4          3.7130   -2.0620    5.0940 hn        1 MOL      0.323504
     16 H5          2.2420   -2.0100    2.6170 h1        1 MOL      0.079948
     17 H6          5.2550   -1.4260    2.8090 hc        1 MOL      0.097274
     18 H7          3.9580   -0.3710    3.4520 hc        1 MOL      0.097274
     19 N2          2.9970   -3.8700    1.2150 n         1 MOL     -0.288968
     20 C7          3.4640   -4.9890    0.3560 c3        1 MOL     -0.216575
     21 C8          4.6210   -4.7560   -0.6280 c         1 MOL      0.660424
     22 O5          5.3220   -5.6590   -1.0730 o         1 MOL     -0.565703
     23 C9          2.2070   -5.4680   -0.3380 c3        1 MOL      0.245828
     24 C10         2.3650   -6.9190   -0.7810 c3        1 MOL      0.048554
     25 C11         1.0070   -7.2990   -1.5250 c3        1 MOL     -0.155694
     26 C12         0.8920   -6.8570   -2.9490 c3        1 MOL     -0.130248
     27 N3          1.6900   -7.7770   -3.8550 n4        1 MOL     -0.125026
     28 H8          2.3320   -3.1960    0.8660 hn        1 MOL      0.139044
     29 H9          3.7040   -5.7890    1.0630 h1        1 MOL      0.128498
     30 H10         2.0930   -4.8320   -1.2190 hc        1 MOL     -0.055173
     31 H11         1.3170   -5.4460    0.2880 hc        1 MOL     -0.055173
     32 H12         2.5970   -7.6800   -0.0430 hc        1 MOL     -0.007435
     33 H13         3.2470   -6.8650   -1.4260 hc        1 MOL     -0.007435
     34 H14         0.0930   -7.0360   -1.0050 hc        1 MOL      0.093265
     35 H15         0.8940   -8.3790   -1.4780 hc        1 MOL      0.093265
     36 H16         1.1990   -5.8080   -3.0030 hx        1 MOL      0.116212
     37 H17        -0.1450   -6.9890   -3.2580 hx        1 MOL      0.116212
     38 H18         1.4420   -7.5970   -4.8190 hn        1 MOL      0.245280
     39 H19         2.6940   -7.7270   -3.7730 hn        1 MOL      0.245280
     40 H20         1.3890   -8.7120   -3.6090 hn        1 MOL      0.245280
     41 N4          4.9670   -3.4510   -0.7640 n         1 MOL     -0.411823
     42 C13         5.9220   -2.9630   -1.7940 c3        1 MOL      0.050760
     43 C14         6.9900   -2.0390   -1.2350 c         1 MOL      0.411937
     44 O6          8.1390   -2.0190   -1.6050 o         1 MOL     -0.504577
     45 C15         5.3110   -2.4180   -3.0510 c3        1 MOL     -0.343017
     46 C16         4.3680   -1.2840   -2.6410 c         1 MOL      0.948098
     47 O7          3.1270   -1.3950   -2.7190 o         1 MOL     -0.855528
     48 O8          4.7990   -0.2340   -2.2560 o         1 MOL     -0.855528
     49 H21         4.3830   -2.8180   -0.2430 hn        1 MOL      0.250711
     50 H22         6.4840   -3.8790   -2.0040 h1        1 MOL      0.100657
     51 H23         4.7690   -3.0880   -3.7120 hc        1 MOL      0.093658
     52 H24         6.1460   -2.0980   -3.6740 hc        1 MOL      0.093658
     53 N5          6.5850   -1.2800   -0.1940 n         1 MOL     -0.075509
     54 C17         7.4970   -0.4600    0.6210 c3        1 MOL     -0.322325
     55 C18         7.5550    0.9840    0.1270 c         1 MOL      0.619259
     56 O9          8.3860    1.7910    0.5320 o         1 MOL     -0.559045
     57 H25         5.6130   -1.2680    0.0740 hn        1 MOL      0.062732
     58 H26         8.4610   -0.9650    0.5640 h1        1 MOL      0.151229
     59 H27         7.0680   -0.4850    1.6300 h1        1 MOL      0.151229
     60 N6          6.6100    1.3610   -0.7530 n         1 MOL     -0.346220
     61 C19         6.5560    2.6810   -1.4030 c3        1 MOL      0.107268
     62 C20         5.1990    3.3290   -1.4100 c         1 MOL      0.633191
     63 O10         4.2200    2.5900   -1.1170 o         1 MOL     -0.631108
     64 C21         7.0340    2.5430   -2.8600 c3        1 MOL     -0.375472
     65 C22         8.3470    1.7310   -2.9740 c         1 MOL      0.737392
     66 N7          8.3440    0.6060   -3.6640 n         1 MOL     -0.888511
     67 O11         9.3540    2.0880   -2.4760 o         1 MOL     -0.531062
     68 H28         5.9680    0.6470   -1.0590 hn        1 MOL      0.377183
     69 H29         7.2530    3.3400   -0.8810 h1        1 MOL      0.056447
     70 H30         7.1910    3.5530   -3.2290 hc        1 MOL      0.087801
     71 H31         6.3140    1.9780   -3.4550 hc        1 MOL      0.087801
     72 H32         7.4950    0.1690   -4.0160 hn        1 MOL      0.394451
     73 H33         9.2450    0.1600   -3.7540 hn        1 MOL      0.394451
     74 N8          5.0880    4.6380   -1.7140 n         1 MOL     -0.576158
     75 C23         3.8510    5.3280   -1.8870 c3        1 MOL      0.088578
     76 C24         2.9160    5.2530   -0.5960 c         1 MOL      0.442385
     77 O12         3.4350    4.9920    0.4880 o         1 MOL     -0.431763
     78 H34         5.9320    5.1150   -1.9680 hn        1 MOL      0.368971
     79 H35         3.2300    4.7170   -2.5530 h1        1 MOL      0.059400
     80 H36         3.8330    6.2430   -2.4750 h1        1 MOL      0.059400
     81 N9          1.5740    5.3850   -0.6140 n         1 MOL     -0.532687
     82 C25         0.5690    4.8900    0.3930 c3        1 MOL      0.082038
     83 C26         0.7440    3.4180    0.7550 c         1 MOL      0.699998
     84 O13         1.1730    2.5430    0.0020 o         1 MOL     -0.666675
     85 C27        -0.8210    5.2410   -0.1700 c3        1 MOL     -0.291561
     86 C28        -1.1840    6.7030   -0.2170 ca        1 MOL      0.155285
     87 C29        -0.8750    7.6110    0.8530 ca        1 MOL     -0.182181
     88 C30        -1.8770    7.0690   -1.3470 ca        1 MOL     -0.182181
     89 C31        -1.2610    8.9330    0.7120 ca        1 MOL     -0.265919
     90 C32        -2.2950    8.3660   -1.4660 ca        1 MOL     -0.265919
     91 C33        -2.0380    9.3290   -0.4360 ca        1 MOL      0.332280
     92 O14        -2.4370   10.5940   -0.5820 oh        1 MOL     -0.456606
     93 H37         1.1870    5.4580   -1.5430 hn        1 MOL      0.289594
     94 H38         0.8050    5.4380    1.3060 h1        1 MOL      0.080346
     95 H39        -1.5310    4.8140    0.5290 hc        1 MOL      0.098801
     96 H40        -0.9300    4.8600   -1.1890 hc        1 MOL      0.098801
     97 H41        -0.2930    7.2480    1.6800 ha        1 MOL      0.152251
     98 H42        -2.0360    6.3930   -2.1760 ha        1 MOL      0.152251
     99 H43        -1.0950    9.6750    1.4850 ha        1 MOL      0.160305
    100 H44        -2.8510    8.7260   -2.3180 ha        1 MOL      0.160305
    101 H45        -2.1590   11.1270    0.1750 ho        1 MOL      0.367103
    102 N10         0.1370    3.1070    1.9260 n         1 MOL     -0.546987
    103 C34        -0.0930    1.8160    2.6030 c3        1 MOL     -0.003598
    104 C35        -0.2050    0.6220    1.7090 c         1 MOL      0.357609
    105 O15         0.8000    0.1930    1.2140 o         1 MOL     -0.257361
    106 C36         0.8840    1.6020    3.7550 c3        1 MOL      0.250459
    107 C37         0.6440    0.3190    4.5850 c3        1 MOL     -0.136060
    108 C38         1.0610    2.7710    4.7550 c3        1 MOL     -0.479221
    109 C39        -0.5560    0.2360    5.4940 c3        1 MOL     -0.093216
    110 H46        -0.2290    3.9120    2.4130 hn        1 MOL      0.296766
    111 H47        -1.0320    2.0230    3.1240 h1        1 MOL      0.081115
    112 H48         1.8290    1.5390    3.2210 hc        1 MOL      0.023161
    113 H49         1.5740    0.2030    5.1550 hc        1 MOL      0.043009
    114 H50         0.4070   -0.4990    3.9060 hc        1 MOL      0.043009
    115 H51         1.5250    3.6050    4.2340 hc        1 MOL      0.125730
    116 H52         0.1610    2.9740    5.3370 hc        1 MOL      0.125730
    117 H53         1.7920    2.4940    5.5290 hc        1 MOL      0.125730
    118 H54        -0.7460   -0.7070    5.9920 hc        1 MOL      0.029498
    119 H55        -0.6080    1.0400    6.2290 hc        1 MOL      0.029498
    120 H56        -1.4380    0.4280    4.8880 hc        1 MOL      0.029498
    121 N11        -1.4840    0.0380    1.6210 n         1 MOL     -0.386788
    122 C40        -1.5800   -1.2800    0.9000 c3        1 MOL     -0.199293
    123 C41        -2.9150   -1.6190    0.4300 c         1 MOL      0.699426
    124 O16        -3.0920   -2.7160   -0.1550 o         1 MOL     -0.608857
    125 C42        -1.0420   -2.4440    1.8130 c3        1 MOL      0.415107
    126 O17        -1.6930   -2.6680    3.0390 oh        1 MOL     -0.649961
    127 H57        -2.2670    0.5790    1.9480 hn        1 MOL      0.282835
    128 H58        -0.9230   -1.2680    0.0360 h1        1 MOL      0.070885
    129 H59        -0.0220   -2.1320    2.0130 h1        1 MOL     -0.003656
    130 H60        -1.1380   -3.3870    1.2640 h1        1 MOL     -0.003656
    131 H61        -1.0400   -2.7670    3.7410 ho        1 MOL      0.405087
    132 N12        -3.8760   -0.7630    0.6690 n         1 MOL     -0.524573
    133 C43        -5.3220   -0.9350    0.2120 c3        1 MOL      0.184761
    134 C44        -5.4850   -0.4590   -1.2420 c         1 MOL      0.570470
    135 O18        -4.5620    0.1030   -1.8040 o         1 MOL     -0.582497
    136 C45        -6.2800   -0.2010    1.1640 c3        1 MOL     -0.234102
    137 H62        -3.5910    0.1100    1.0940 hn        1 MOL      0.269329
    138 H63        -5.5930   -1.9940    0.2840 h1        1 MOL      0.098894
    139 H64        -6.1080    0.8700    1.0800 hc        1 MOL      0.070282
    140 H65        -7.3470   -0.3390    0.9820 hc        1 MOL      0.070282
    141 H66        -6.0740   -0.5600    2.1720 hc        1 MOL      0.070282
    142 N13        -6.5880   -0.7260   -1.9220 n         1 MOL     -0.563132
    143 C46        -7.7180   -1.5270   -1.4930 c3        1 MOL      0.260146
    144 C47        -8.9660   -1.0610   -2.1920 c         1 MOL      0.343887
    145 O19        -8.9600   -0.5540   -3.2870 o         1 MOL     -0.518230
    146 C48        -7.4740   -3.0120   -1.7930 c3        1 MOL     -0.210116
    147 H67        -6.5650   -0.5910   -2.9280 hn        1 MOL      0.330439
    148 H68        -7.8550   -1.5000   -0.4130 h1        1 MOL     -0.024444
    149 H69        -6.5560   -3.3810   -1.3500 hc        1 MOL      0.060788
    150 H70        -8.3070   -3.6420   -1.4710 hc        1 MOL      0.060788
    151 H71        -7.3980   -3.1190   -2.8700 hc        1 MOL      0.060788
    152 N14       -10.1130   -1.1890   -1.5700 n         1 MOL     -0.132246
    153 C49       -10.4620   -1.6880   -0.2050 c3        1 MOL     -0.311288
    154 C50       -10.3080   -0.5010    0.8730 c         1 MOL      0.579007
    155 O20       -10.1110   -0.8060    2.0760 o         1 MOL     -0.557787
    156 C51       -11.9100   -2.3440   -0.1300 c3        1 MOL      0.023859
    157 C52       -13.1810   -1.4050   -0.3510 c3        1 MOL     -0.164509
    158 C53       -13.2170   -0.9260   -1.8060 c         1 MOL      0.734903
    159 O21       -12.7050    0.1750   -2.0160 o         1 MOL     -0.681718
    160 O22       -13.8170   -1.6350   -2.6770 o         1 MOL     -0.681718
    161 H72       -10.9380   -0.8670   -2.0550 hn        1 MOL      0.202717
    162 H73        -9.7830   -2.5120   -0.0350 h1        1 MOL      0.137917
    163 H74       -11.9130   -2.8100    0.8540 hc        1 MOL      0.032188
    164 H75       -11.9670   -3.1780   -0.8300 hc        1 MOL      0.032188
    165 H76       -13.0650   -0.4890    0.2230 hc        1 MOL      0.024185
    166 H77       -14.1100   -1.8790   -0.0440 hc        1 MOL      0.024185
    167 N15       -10.3650    0.7890    0.5400 n         1 MOL     -0.300167
    168 C54        -9.8180    1.9170    1.3460 c3        1 MOL     -0.142480
    169 H78        -8.7900    2.1140    1.0450 h1        1 MOL      0.082692
    170 H79       -10.4230    2.8090    1.1810 h1        1 MOL      0.082692
    171 H80        -9.8420    1.6530    2.4030 h1        1 MOL      0.082692
    172 H81       -10.5780    1.0930   -0.4000 hn        1 MOL      0.260447
    173 Ca1         2.3900    0.5370   -0.9350 Ca        1 MOL      1.781537
    174 O23        -0.0860    0.4050   -2.0200 oh        1 MOL     -0.879016
    175 H82        -0.7180   -0.2240   -2.3710 ho        1 MOL      0.433152
    176 H83        -0.4850    1.2600   -2.1860 ho        1 MOL      0.433152
    177 O24         1.0970   -2.3430   -1.1850 oh        1 MOL     -0.879016
    178 H84         0.2950   -2.8010   -1.4340 ho        1 MOL      0.433152
    179 H85         1.6830   -2.4800   -1.9400 ho        1 MOL      0.433152
@<TRIPOS>BOND
     1    1    2 1   
     2    1    4 1   
     3    1    5 1   
     4    1    6 1   
     5    2    3 2   
     6    2    7 1   
     7    7    8 1   
     8    7   15 1   
     9    8    9 1   
    10    8   11 1   
    11    8   16 1   
    12    9   10 2   
    13    9   19 1   
    14   11   12 1   
    15   11   17 1   
    16   11   18 1   
    17   12   13 1   
    18   12   14 1   
    19   19   20 1   
    20   19   28 1   
    21   20   21 1   
    22   20   23 1   
    23   20   29 1   
    24   21   22 2   
    25   21   41 1   
    26   23   24 1   
    27   23   30 1   
    28   23   31 1   
    29   24   25 1   
    30   24   32 1   
    31   24   33 1   
    32   25   26 1   
    33   25   34 1   
    34   25   35 1   
    35   26   27 1   
    36   26   36 1   
    37   26   37 1   
    38   27   38 1   
    39   27   39 1   
    40   27   40 1   
    41   41   42 1   
    42   41   49 1   
    43   42   43 1   
    44   42   45 1   
    45   42   50 1   
    46   43   44 2   
    47   43   53 1   
    48   45   46 1   
    49   45   51 1   
    50   45   52 1   
    51   46   47 1   
    52   46   48 1   
    53   53   54 1   
    54   53   57 1   
    55   54   55 1   
    56   54   58 1   
    57   54   59 1   
    58   55   56 2   
    59   55   60 1   
    60   60   61 1   
    61   60   68 1   
    62   61   62 1   
    63   61   64 1   
    64   61   69 1   
    65   62   63 2   
    66   62   74 1   
    67   64   65 1   
    68   64   70 1   
    69   64   71 1   
    70   65   66 1   
    71   65   67 2   
    72   66   72 1   
    73   66   73 1   
    74   74   75 1   
    75   74   78 1   
    76   75   76 1   
    77   75   79 1   
    78   75   80 1   
    79   76   77 2   
    80   76   81 1   
    81   81   82 1   
    82   81   93 1   
    83   82   83 1   
    84   82   85 1   
    85   82   94 1   
    86   83   84 2   
    87   83  102 1   
    88   85   86 1   
    89   85   95 1   
    90   85   96 1   
    91   86   87 ar  
    92   86   88 ar  
    93   87   89 ar  
    94   87   97 1   
    95   88   90 ar  
    96   88   98 1   
    97   89   91 ar  
    98   89   99 1   
    99   90   91 ar  
   100   90  100 1   
   101   91   92 1   
   102   92  101 1   
   103  102  103 1   
   104  102  110 1   
   105  103  104 1   
   106  103  106 1   
   107  103  111 1   
   108  104  105 2   
   109  104  121 1   
   110  106  107 1   
   111  106  108 1   
   112  106  112 1   
   113  107  109 1   
   114  107  113 1   
   115  107  114 1   
   116  108  115 1   
   117  108  116 1   
   118  108  117 1   
   119  109  118 1   
   120  109  119 1   
   121  109  120 1   
   122  121  122 1   
   123  121  127 1   
   124  122  123 1   
   125  122  125 1   
   126  122  128 1   
   127  123  124 2   
   128  123  132 1   
   129  125  126 1   
   130  125  129 1   
   131  125  130 1   
   132  126  131 1   
   133  132  133 1   
   134  132  137 1   
   135  133  134 1   
   136  133  136 1   
   137  133  138 1   
   138  134  135 2   
   139  134  142 1   
   140  136  139 1   
   141  136  140 1   
   142  136  141 1   
   143  142  143 1   
   144  142  147 1   
   145  143  144 1   
   146  143  146 1   
   147  143  148 1   
   148  144  145 2   
   149  144  152 1   
   150  146  149 1   
   151  146  150 1   
   152  146  151 1   
   153  152  153 1   
   154  152  161 1   
   155  153  154 1   
   156  153  156 1   
   157  153  162 1   
   158  154  155 2   
   159  154  167 1   
   160  156  157 1   
   161  156  163 1   
   162  156  164 1   
   163  157  158 1   
   164  157  165 1   
   165  157  166 1   
   166  158  159 1   
   167  158  160 1   
   168  167  168 1   
   169  167  172 1   
   170  168  169 1   
   171  168  170 1   
   172  168  171 1   
   173  174  175 1   
   174  174  176 1   
   175  177  178 1   
   176  177  179 1   
@<TRIPOS>SUBSTRUCTURE
     1 MOL         1 TEMP              0 ****  ****    0 ROOT
