@<TRIPOS>MOLECULE
MOL
  182   178     1     0     0
SMALL
resp


@<TRIPOS>ATOM
      1 C1          0.0580   -3.7940    6.2000 c3        1 MOL     -0.443340
      2 C2          0.2600   -3.7650    4.6420 c         1 MOL      0.726596
      3 O1         -0.7860   -3.7870    3.9590 o         1 MOL     -0.607347
      4 H1         -0.4780   -4.7000    6.4800 hc        1 MOL      0.120602
      5 H2          1.0300   -3.7800    6.6930 hc        1 MOL      0.120602
      6 H3         -0.5180   -2.9220    6.5090 hc        1 MOL      0.120602
      7 N1          1.5120   -3.6220    4.2050 n         1 MOL     -0.608579
      8 C3          1.8840   -3.2540    2.7470 c3        1 MOL      0.093316
      9 C4          2.2930   -4.5000    1.9280 c         1 MOL      0.476808
     10 O2          2.8100   -5.4670    2.5040 o         1 MOL     -0.550791
     11 C5          2.9760   -2.1870    2.7540 c3        1 MOL     -0.242059
     12 C6          3.1220   -1.3560    1.4940 c         1 MOL      0.602470
     13 O3          3.6680   -0.1900    1.4700 o         1 MOL     -0.645142
     14 O4          2.5840   -1.8190    0.4390 o         1 MOL     -0.645142
     15 H4          2.3410   -3.5600    4.7680 hn        1 MOL      0.357835
     16 H5          1.0040   -2.8040    2.2900 h1        1 MOL      0.209160
     17 H6          3.9110   -2.7240    2.8910 hc        1 MOL      0.090712
     18 H7          2.7270   -1.4980    3.5700 hc        1 MOL      0.090712
     19 N2          2.0650   -4.5080    0.6500 n         1 MOL     -0.090296
     20 C7          2.1840   -5.4930   -0.4130 c3        1 MOL     -0.121132
     21 C8          3.4960   -5.3120   -1.0870 c         1 MOL      0.468170
     22 O5          4.1110   -6.2250   -1.7590 o         1 MOL     -0.570575
     23 C9          0.9620   -5.4940   -1.3400 c3        1 MOL     -0.077950
     24 C10         1.0720   -6.5170   -2.4820 c3        1 MOL     -0.013048
     25 C11        -0.1340   -6.5540   -3.3850 c3        1 MOL     -0.140826
     26 C12        -1.4280   -7.1640   -2.7370 c3        1 MOL      0.160591
     27 N3         -2.6850   -7.2150   -3.6510 n4        1 MOL     -0.401216
     28 H8          1.7600   -3.5810    0.3710 hn        1 MOL     -0.156811
     29 H9          2.3100   -6.4620    0.0640 h1        1 MOL      0.134961
     30 H10         0.7750   -4.4880   -1.7310 hc        1 MOL      0.080518
     31 H11         0.1100   -5.6800   -0.6890 hc        1 MOL      0.080518
     32 H12         1.2620   -7.4760   -2.0130 hc        1 MOL      0.059154
     33 H13         1.8650   -6.3060   -3.2030 hc        1 MOL      0.059154
     34 H14         0.1500   -7.1680   -4.2420 hc        1 MOL      0.068279
     35 H15        -0.3910   -5.5090   -3.5920 hc        1 MOL      0.068279
     36 H16        -1.7240   -6.5700   -1.8730 hx        1 MOL      0.037993
     37 H17        -1.1630   -8.1340   -2.3250 hx        1 MOL      0.037993
     38 H18        -2.5490   -7.7160   -4.5170 hn        1 MOL      0.290864
     39 H19        -3.3980   -7.7640   -3.1720 hn        1 MOL      0.290864
     40 H20        -3.0320   -6.2870   -3.8360 hn        1 MOL      0.290864
     41 N4          4.1190   -4.0860   -0.9550 n         1 MOL     -0.041377
     42 C13         5.4690   -3.7570   -1.2730 c3        1 MOL     -0.074280
     43 C14         6.2230   -3.1210   -0.1030 c         1 MOL      0.479037
     44 O6          5.7720   -3.2490    1.0380 o         1 MOL     -0.431414
     45 C15         5.4550   -2.8880   -2.5700 c3        1 MOL     -0.177995
     46 C16         4.6080   -1.6810   -2.2790 c         1 MOL      0.709963
     47 O7          3.4460   -1.6080   -2.7400 o         1 MOL     -0.694199
     48 O8          5.0600   -0.7940   -1.5240 o         1 MOL     -0.694199
     49 H21         3.5840   -3.3780   -0.4560 hn        1 MOL      0.031042
     50 H22         6.0280   -4.6690   -1.4390 h1        1 MOL      0.119558
     51 H23         4.8070   -3.3440   -3.3150 hc        1 MOL      0.049043
     52 H24         6.4340   -2.5690   -2.9420 hc        1 MOL      0.049043
     53 N5          7.4830   -2.5650   -0.2130 n         1 MOL     -0.439604
     54 C17         8.1550   -1.7940    0.9190 c3        1 MOL     -0.105269
     55 C18         8.1730   -0.2490    0.7410 c         1 MOL      0.608432
     56 O9          8.9990    0.4670    1.3340 o         1 MOL     -0.589977
     57 H25         7.9840   -2.5270   -1.0920 hn        1 MOL      0.294762
     58 H26         9.2230   -1.9770    0.7840 h1        1 MOL      0.095819
     59 H27         7.8040   -2.0860    1.9150 h1        1 MOL      0.095819
     60 N6          7.2900    0.2290   -0.0930 n         1 MOL     -0.379251
     61 C19         7.3670    1.5960   -0.6600 c3        1 MOL     -0.027642
     62 C20         6.0550    2.4370   -0.5390 c         1 MOL      0.614156
     63 O10         4.9140    1.9320   -0.7380 o         1 MOL     -0.502140
     64 C21         7.7010    1.5170   -2.1620 c3        1 MOL     -0.320629
     65 C22         9.1170    1.0630   -2.5010 c         1 MOL      0.731601
     66 N7         10.0010    1.9320   -2.8150 n         1 MOL     -0.774103
     67 O11         9.4720   -0.1000   -2.6240 o         1 MOL     -0.567078
     68 H28         6.6150   -0.4390   -0.4390 hn        1 MOL      0.301148
     69 H29         8.0940    2.1250   -0.0510 h1        1 MOL      0.075354
     70 H30         7.6680    2.5230   -2.5890 hc        1 MOL      0.085288
     71 H31         6.9530    0.8480   -2.6070 hc        1 MOL      0.085288
     72 H32         9.8220    2.9060   -2.6300 hn        1 MOL      0.359128
     73 H33        10.9170    1.5240   -2.9020 hn        1 MOL      0.359128
     74 N8          6.1930    3.7660   -0.3460 n         1 MOL     -0.448990
     75 C23         5.2190    4.7860   -0.3690 c3        1 MOL     -0.073804
     76 C24         4.1460    4.5690    0.6890 c         1 MOL      0.532822
     77 O12         4.4170    4.1950    1.8290 o         1 MOL     -0.465898
     78 H34         7.1240    4.1520   -0.4050 hn        1 MOL      0.304484
     79 H35         4.7570    4.7640   -1.3610 h1        1 MOL      0.079618
     80 H36         5.7020    5.7590   -0.3300 h1        1 MOL      0.079618
     81 N9          2.9210    4.9570    0.3510 n         1 MOL     -0.459571
     82 C25         1.6930    4.6940    1.0840 c3        1 MOL      0.054187
     83 C26         1.3140    3.2370    1.3690 c         1 MOL      0.696389
     84 O13         1.9760    2.3080    0.8360 o         1 MOL     -0.674124
     85 C27         0.5280    5.3690    0.3480 c3        1 MOL     -0.127860
     86 C28         0.8080    6.7440   -0.1580 ca        1 MOL      0.093253
     87 C29         1.1440    7.7620    0.7970 ca        1 MOL     -0.154369
     88 C30         0.9210    7.0230   -1.5380 ca        1 MOL     -0.154369
     89 C31         1.4610    9.0230    0.2400 ca        1 MOL     -0.261744
     90 C32         1.2690    8.2920   -1.9860 ca        1 MOL     -0.261744
     91 C33         1.5540    9.3140   -1.1070 ca        1 MOL      0.346129
     92 O14         2.0540   10.5350   -1.5470 oh        1 MOL     -0.472762
     93 H37         2.8180    5.5230   -0.4790 hn        1 MOL      0.243151
     94 H38         1.7980    5.1850    2.0490 h1        1 MOL      0.067694
     95 H39        -0.3110    5.3730    1.0390 hc        1 MOL      0.041718
     96 H40         0.2140    4.7670   -0.5070 hc        1 MOL      0.041718
     97 H41         1.3120    7.7060    1.8570 ha        1 MOL      0.141829
     98 H42         0.7420    6.2330   -2.2630 ha        1 MOL      0.141829
     99 H43         1.7330    9.8390    0.8870 ha        1 MOL      0.152211
    100 H44         1.3180    8.4490   -3.0500 ha        1 MOL      0.152211
    101 H45         2.2490   11.0540   -0.7660 ho        1 MOL      0.352265
    102 N10         0.3540    2.9750    2.2320 n         1 MOL     -0.668654
    103 C34        -0.0650    1.5770    2.6830 c3        1 MOL      0.284889
    104 C35        -0.3230    0.6220    1.4790 c         1 MOL      0.223120
    105 O15         0.5230    0.2610    0.6600 o         1 MOL     -0.238388
    106 C36         0.8570    0.9880    3.7580 c3        1 MOL      0.150797
    107 C37         0.3120   -0.2750    4.4010 c3        1 MOL     -0.098197
    108 C38         1.1540    2.0520    4.8720 c3        1 MOL     -0.530585
    109 C39        -0.9930   -0.0410    5.1450 c3        1 MOL     -0.024042
    110 H46        -0.0760    3.7160    2.7750 hn        1 MOL      0.325488
    111 H47        -1.0110    1.7730    3.1840 h1        1 MOL      0.021748
    112 H48         1.8130    0.7400    3.2950 hc        1 MOL      0.088248
    113 H49         1.0500   -0.7130    5.0790 hc        1 MOL      0.023738
    114 H50         0.1590   -1.1170    3.7290 hc        1 MOL      0.023738
    115 H51         1.9140    2.7610    4.5210 hc        1 MOL      0.141883
    116 H52         0.2170    2.5260    5.1750 hc        1 MOL      0.141883
    117 H53         1.5810    1.7170    5.8180 hc        1 MOL      0.141883
    118 H54        -0.9520    0.9160    5.6630 hc        1 MOL      0.005000
    119 H55        -1.8370    0.0000    4.4500 hc        1 MOL      0.005000
    120 H56        -1.1900   -0.7490    5.9510 hc        1 MOL      0.005000
    121 N11        -1.5750    0.0650    1.4900 n         1 MOL     -0.438510
    122 C40        -1.9940   -1.0120    0.5860 c3        1 MOL      0.027284
    123 C41        -3.5120   -1.0210    0.1160 c         1 MOL      0.477688
    124 O16        -3.9020   -1.8780   -0.6980 o         1 MOL     -0.525331
    125 C42        -1.6980   -2.3810    1.2000 c3        1 MOL      0.096291
    126 O17        -0.7750   -3.1480    0.3970 oh        1 MOL     -0.657823
    127 H57        -2.2990    0.3290    2.1510 hn        1 MOL      0.320422
    128 H58        -1.4920   -0.9550   -0.3850 h1        1 MOL      0.135951
    129 H59        -2.6680   -2.8820    1.2860 h1        1 MOL      0.063382
    130 H60        -1.3000   -2.1940    2.1910 h1        1 MOL      0.063382
    131 H61        -1.2220   -3.9810    0.2230 ho        1 MOL      0.423440
    132 N12        -4.3650   -0.1280    0.5970 n         1 MOL     -0.471649
    133 C43        -5.7370    0.0590    0.1000 c3        1 MOL      0.269286
    134 C44        -5.8880    0.8130   -1.1710 c         1 MOL      0.660569
    135 O18        -4.8830    1.4450   -1.5050 o         1 MOL     -0.610617
    136 C45        -6.4420    0.6570    1.2600 c3        1 MOL     -0.300281
    137 H62        -3.9650    0.6130    1.1510 hn        1 MOL      0.224993
    138 H63        -6.2490   -0.8860   -0.0840 h1        1 MOL      0.051663
    139 H64        -7.4460    0.8430    0.8680 hc        1 MOL      0.082197
    140 H65        -6.4050   -0.0330    2.1010 hc        1 MOL      0.082197
    141 H66        -6.0700    1.6710    1.4300 hc        1 MOL      0.082197
    142 N13        -6.9300    0.7970   -1.9670 n         1 MOL     -0.735083
    143 C46        -8.1010   -0.1800   -1.8410 c3        1 MOL      0.522524
    144 C47        -9.2200    0.4680   -2.5650 c         1 MOL      0.394050
    145 O19        -8.9080    0.8700   -3.6810 o         1 MOL     -0.537000
    146 C48        -7.6230   -1.5290   -2.4180 c3        1 MOL     -0.369034
    147 H67        -6.9350    1.4830   -2.7060 hn        1 MOL      0.366364
    148 H68        -8.3250   -0.2950   -0.7790 h1        1 MOL     -0.087990
    149 H69        -8.5100   -2.1640   -2.5630 hc        1 MOL      0.098475
    150 H70        -7.3300   -1.2190   -3.4270 hc        1 MOL      0.098475
    151 H71        -6.7900   -1.9710   -1.8940 hc        1 MOL      0.098475
    152 N14       -10.4340    0.6150   -2.0170 n         1 MOL     -0.414092
    153 C49       -10.8360    0.3420   -0.6490 c3        1 MOL     -0.087674
    154 C50       -10.4810    1.4020    0.3350 c         1 MOL      0.500922
    155 O20       -10.2670    1.1000    1.4970 o         1 MOL     -0.522470
    156 C51       -12.3620    0.1440   -0.7610 c3        1 MOL      0.068329
    157 C52       -12.8980   -0.5640    0.5250 c3        1 MOL     -0.192136
    158 C53       -14.4040   -0.7790    0.1950 c         1 MOL      0.658894
    159 O21       -15.1330    0.2500    0.1520 o         1 MOL     -0.654739
    160 O22       -14.7530   -1.9440   -0.0340 o         1 MOL     -0.654739
    161 H72       -11.0650    1.1690   -2.5810 hn        1 MOL      0.275201
    162 H73       -10.3750   -0.6050   -0.3690 h1        1 MOL      0.100876
    163 H74       -12.5530   -0.5390   -1.5960 hc        1 MOL      0.019798
    164 H75       -12.8600    1.1060   -0.8390 hc        1 MOL      0.019798
    165 H76       -12.6810   -0.0660    1.4650 hc        1 MOL      0.038465
    166 H77       -12.3730   -1.5220    0.5560 hc        1 MOL      0.038465
    167 N15       -10.4030    2.6630   -0.0090 n         1 MOL     -0.248851
    168 C54        -9.5980    3.7300    0.6040 c3        1 MOL     -0.315732
    169 H78        -9.4770    4.5470   -0.1070 h1        1 MOL      0.129026
    170 H79       -10.1000    4.0980    1.4980 h1        1 MOL      0.129026
    171 H80        -8.6170    3.3370    0.8740 h1        1 MOL      0.129026
    172 H81       -10.7560    2.9330   -0.9120 hn        1 MOL      0.253270
    173 Ca1         2.6970    0.4450   -0.9600 Ca        1 MOL      1.742190
    174 O23         0.5280    1.4770   -2.2970 oh        1 MOL     -0.862249
    175 H82        -0.4070    1.3090   -2.1510 ho        1 MOL      0.421942
    176 H83         0.5420    2.0360   -3.0670 ho        1 MOL      0.421942
    177 O24         3.1240    1.7610   -3.4180 oh        1 MOL     -0.862249
    178 H84         3.4080    2.5830   -3.8140 ho        1 MOL      0.421942
    179 H85         2.7960    1.2350   -4.1480 ho        1 MOL      0.421942
    180 O25         1.0960   -1.6350   -1.8090 oh        1 MOL     -0.862249
    181 H86         1.9030   -2.0430   -2.1050 ho        1 MOL      0.421942
    182 H87         1.0170   -1.8780   -0.8880 ho        1 MOL      0.421942
@<TRIPOS>BOND
     1    1    2 1   
     2    1    4 1   
     3    1    5 1   
     4    1    6 1   
     5    2    3 2   
     6    2    7 1   
     7    7    8 1   
     8    7   15 1   
     9    8    9 1   
    10    8   11 1   
    11    8   16 1   
    12    9   10 2   
    13    9   19 1   
    14   11   12 1   
    15   11   17 1   
    16   11   18 1   
    17   12   13 1   
    18   12   14 1   
    19   19   20 1   
    20   19   28 1   
    21   20   21 1   
    22   20   23 1   
    23   20   29 1   
    24   21   22 2   
    25   21   41 1   
    26   23   24 1   
    27   23   30 1   
    28   23   31 1   
    29   24   25 1   
    30   24   32 1   
    31   24   33 1   
    32   25   26 1   
    33   25   34 1   
    34   25   35 1   
    35   26   27 1   
    36   26   36 1   
    37   26   37 1   
    38   27   38 1   
    39   27   39 1   
    40   27   40 1   
    41   41   42 1   
    42   41   49 1   
    43   42   43 1   
    44   42   45 1   
    45   42   50 1   
    46   43   44 2   
    47   43   53 1   
    48   45   46 1   
    49   45   51 1   
    50   45   52 1   
    51   46   47 1   
    52   46   48 1   
    53   53   54 1   
    54   53   57 1   
    55   54   55 1   
    56   54   58 1   
    57   54   59 1   
    58   55   56 2   
    59   55   60 1   
    60   60   61 1   
    61   60   68 1   
    62   61   62 1   
    63   61   64 1   
    64   61   69 1   
    65   62   63 2   
    66   62   74 1   
    67   64   65 1   
    68   64   70 1   
    69   64   71 1   
    70   65   66 1   
    71   65   67 2   
    72   66   72 1   
    73   66   73 1   
    74   74   75 1   
    75   74   78 1   
    76   75   76 1   
    77   75   79 1   
    78   75   80 1   
    79   76   77 2   
    80   76   81 1   
    81   81   82 1   
    82   81   93 1   
    83   82   83 1   
    84   82   85 1   
    85   82   94 1   
    86   83   84 2   
    87   83  102 1   
    88   85   86 1   
    89   85   95 1   
    90   85   96 1   
    91   86   87 ar  
    92   86   88 ar  
    93   87   89 ar  
    94   87   97 1   
    95   88   90 ar  
    96   88   98 1   
    97   89   91 ar  
    98   89   99 1   
    99   90   91 ar  
   100   90  100 1   
   101   91   92 1   
   102   92  101 1   
   103  102  103 1   
   104  102  110 1   
   105  103  104 1   
   106  103  106 1   
   107  103  111 1   
   108  104  105 2   
   109  104  121 1   
   110  106  107 1   
   111  106  108 1   
   112  106  112 1   
   113  107  109 1   
   114  107  113 1   
   115  107  114 1   
   116  108  115 1   
   117  108  116 1   
   118  108  117 1   
   119  109  118 1   
   120  109  119 1   
   121  109  120 1   
   122  121  122 1   
   123  121  127 1   
   124  122  123 1   
   125  122  125 1   
   126  122  128 1   
   127  123  124 2   
   128  123  132 1   
   129  125  126 1   
   130  125  129 1   
   131  125  130 1   
   132  126  131 1   
   133  132  133 1   
   134  132  137 1   
   135  133  134 1   
   136  133  136 1   
   137  133  138 1   
   138  134  135 2   
   139  134  142 1   
   140  136  139 1   
   141  136  140 1   
   142  136  141 1   
   143  142  143 1   
   144  142  147 1   
   145  143  144 1   
   146  143  146 1   
   147  143  148 1   
   148  144  145 2   
   149  144  152 1   
   150  146  149 1   
   151  146  150 1   
   152  146  151 1   
   153  152  153 1   
   154  152  161 1   
   155  153  154 1   
   156  153  156 1   
   157  153  162 1   
   158  154  155 2   
   159  154  167 1   
   160  156  157 1   
   161  156  163 1   
   162  156  164 1   
   163  157  158 1   
   164  157  165 1   
   165  157  166 1   
   166  158  159 1   
   167  158  160 1   
   168  167  168 1   
   169  167  172 1   
   170  168  169 1   
   171  168  170 1   
   172  168  171 1   
   173  174  175 1   
   174  174  176 1   
   175  177  178 1   
   176  177  179 1   
   177  180  181 1   
   178  180  182 1   
@<TRIPOS>SUBSTRUCTURE
     1 MOL         1 TEMP              0 ****  ****    0 ROOT
