@<TRIPOS>MOLECULE
MOL
  192   187     1     0     0
SMALL
resp


@<TRIPOS>ATOM
      1 C1         -6.0890   -4.8890    2.6900 c3        1 MOL     -0.483055
      2 C2         -4.9690   -4.0950    1.9870 c         1 MOL      0.639389
      3 O1         -4.4670   -3.1320    2.5380 o         1 MOL     -0.475500
      4 H1         -6.8680   -4.2010    3.0200 hc        1 MOL      0.107495
      5 H2         -6.5150   -5.6120    1.9940 hc        1 MOL      0.107495
      6 H3         -5.6780   -5.4130    3.5530 hc        1 MOL      0.107495
      7 N1         -4.7230   -4.3320    0.6440 n         1 MOL     -0.769919
      8 C3         -3.6930   -3.7150   -0.1880 c3        1 MOL      0.013491
      9 C4         -2.2920   -3.6440    0.4900 c         1 MOL      0.608852
     10 O2         -1.5530   -2.6700    0.4040 o         1 MOL     -0.519518
     11 C5         -4.1520   -2.3420   -0.7170 c3        1 MOL     -0.287421
     12 C6         -5.3860   -2.4600   -1.6030 c         1 MOL      0.770899
     13 O3         -6.5120   -2.0030   -1.3320 o         1 MOL     -0.713696
     14 O4         -5.2780   -3.1920   -2.6170 o         1 MOL     -0.713696
     15 H4         -5.2660   -5.0930    0.2700 hn        1 MOL      0.388116
     16 H5         -3.6050   -4.4470   -0.9940 h1        1 MOL      0.118337
     17 H6         -3.3060   -1.9250   -1.2690 hc        1 MOL      0.077352
     18 H7         -4.2740   -1.7570    0.1960 hc        1 MOL      0.077352
     19 N2         -1.7890   -4.7640    1.0980 n         1 MOL     -0.511330
     20 C7         -0.4540   -4.9610    1.6390 c3        1 MOL      0.031844
     21 C8          0.2460   -6.1900    1.0400 c         1 MOL      0.439835
     22 O5         -0.1020   -7.2990    1.3620 o         1 MOL     -0.561336
     23 C9         -0.6830   -5.1060    3.1760 c3        1 MOL      0.218203
     24 C10        -1.0750   -3.7360    3.8740 c3        1 MOL      0.119795
     25 C11         0.5360   -5.6080    3.9280 c3        1 MOL     -0.299867
     26 C12        -1.8570   -3.8260    5.2440 c3        1 MOL     -0.209505
     27 H8         -2.3480   -5.6080    1.0920 hn        1 MOL      0.312101
     28 H9          0.1190   -4.0720    1.3920 h1        1 MOL      0.086159
     29 H10        -1.5730   -5.7250    3.2820 hc        1 MOL     -0.014891
     30 H11        -1.7090   -3.2190    3.1460 hc        1 MOL      0.014524
     31 H12        -0.2100   -3.0960    4.0180 hc        1 MOL      0.014524
     32 H13         0.6430   -6.6540    3.6520 hc        1 MOL      0.051628
     33 H14         1.4220   -4.9870    3.7690 hc        1 MOL      0.051628
     34 H15         0.4370   -5.5400    5.0090 hc        1 MOL      0.051628
     35 H16        -2.2110   -2.8510    5.5740 hc        1 MOL      0.039656
     36 H17        -2.6290   -4.5960    5.2560 hc        1 MOL      0.039656
     37 H18        -1.1770   -4.1910    6.0140 hc        1 MOL      0.039656
     38 N3          1.3830   -6.0520    0.3290 n         1 MOL     -0.344862
     39 C13         1.9850   -4.8620   -0.3100 c3        1 MOL      0.005708
     40 C14         2.5340   -5.2620   -1.7530 c         1 MOL      0.539983
     41 O6          2.5020   -6.4290   -2.2170 o         1 MOL     -0.564925
     42 C15         3.0870   -4.4200    0.7090 c3        1 MOL     -0.148110
     43 C16         3.8280   -3.2640    0.1700 c         1 MOL      0.736690
     44 O7          4.9620   -3.4840   -0.3000 o         1 MOL     -0.686444
     45 O8          3.3040   -2.0760    0.2230 o         1 MOL     -0.686444
     46 H19         1.9150   -6.8750    0.0790 hn        1 MOL      0.275381
     47 H20         1.2910   -4.0210   -0.3190 h1        1 MOL      0.033948
     48 H21         3.7190   -5.2750    0.9290 hc        1 MOL      0.028846
     49 H22         2.5510   -4.0770    1.5910 hc        1 MOL      0.028846
     50 N4          2.9700   -4.2750   -2.5200 n         1 MOL     -0.440976
     51 C17         3.7330   -4.5390   -3.7950 c3        1 MOL      0.034664
     52 C18         5.0910   -3.8670   -3.9070 c         1 MOL      0.595976
     53 O9          5.6900   -4.0270   -4.9650 o         1 MOL     -0.619449
     54 H23         2.9840   -3.3890   -2.0550 hn        1 MOL      0.312551
     55 H24         3.2230   -4.1080   -4.6640 h1        1 MOL      0.067132
     56 H25         3.9240   -5.5990   -3.9670 h1        1 MOL      0.067132
     57 N5          5.6710   -3.1070   -2.9610 n         1 MOL     -0.409310
     58 C19         6.7630   -2.1520   -3.1100 c3        1 MOL      0.071613
     59 C20         7.6490   -1.8070   -1.9220 c         1 MOL      0.342402
     60 O10         8.8580   -1.5500   -2.1500 o         1 MOL     -0.579312
     61 C21         6.2370   -0.8230   -3.7430 c3        1 MOL     -0.186922
     62 C22         5.0460   -0.1890   -2.9370 c         1 MOL      0.717264
     63 O11         5.4070    0.3800   -1.9030 o         1 MOL     -0.689290
     64 O12         3.8760   -0.2390   -3.3280 o         1 MOL     -0.689290
     65 H26         5.3140   -3.1240   -2.0110 hn        1 MOL      0.190700
     66 H27         7.4330   -2.6090   -3.8390 h1        1 MOL      0.073587
     67 H28         5.9290   -1.0100   -4.7750 hc        1 MOL      0.023071
     68 H29         7.0290   -0.0980   -3.9250 hc        1 MOL      0.023071
     69 N6          7.1520   -1.7850   -0.6780 n         1 MOL      0.010834
     70 C23         7.8650   -1.4260    0.5200 c3        1 MOL     -0.465863
     71 C24         8.1020    0.0680    0.7160 c         1 MOL      0.816897
     72 O13         8.6010    0.4160    1.7900 o         1 MOL     -0.621428
     73 H30         6.1940   -2.0880   -0.6050 hn        1 MOL      0.225935
     74 H31         8.8470   -1.9070    0.4740 h1        1 MOL      0.142716
     75 H32         7.2490   -1.7950    1.3430 h1        1 MOL      0.142716
     76 N7          7.6360    1.0300   -0.1610 n         1 MOL     -0.582739
     77 C25         7.5060    2.5520    0.0140 c3        1 MOL      0.135411
     78 C26         7.2700    2.9930    1.5020 c         1 MOL      0.526173
     79 O14         7.6240    4.0660    1.9680 o         1 MOL     -0.548099
     80 C27         8.7260    3.2780   -0.7280 c3        1 MOL      0.088793
     81 C28         8.9930    2.6600   -2.1100 c3        1 MOL     -0.180051
     82 C29        10.0060    3.5220   -2.8110 c         1 MOL      0.670490
     83 N8         10.6490    3.0620   -3.8340 n         1 MOL     -0.774746
     84 O15        10.3400    4.6280   -2.4120 o         1 MOL     -0.584725
     85 H33         7.3030    0.6800   -1.0440 hn        1 MOL      0.259849
     86 H34         6.5780    2.8790   -0.4400 h1        1 MOL      0.100869
     87 H35         9.6350    3.2320   -0.1210 hc        1 MOL     -0.004216
     88 H36         8.3500    4.2980   -0.8350 hc        1 MOL     -0.004216
     89 H37         8.0420    2.6500   -2.6450 hc        1 MOL      0.059679
     90 H38         9.4170    1.6780   -1.9140 hc        1 MOL      0.059679
     91 H39        10.4570    2.0980   -4.0370 hn        1 MOL      0.341550
     92 H40        11.0360    3.7250   -4.4920 hn        1 MOL      0.341550
     93 N9          6.4600    2.1820    2.2400 n         1 MOL     -0.527118
     94 C30         5.9210    2.4650    3.6180 c3        1 MOL     -0.055530
     95 C31         4.4360    2.2070    3.8000 c         1 MOL      0.433422
     96 O16         3.9550    2.5660    4.8700 o         1 MOL     -0.566194
     97 C32         6.7460    1.7640    4.7460 c3        1 MOL      0.220018
     98 C33         6.7090    0.2560    4.5160 c3        1 MOL     -0.249733
     99 C34         8.1900    2.2100    4.7930 c3        1 MOL     -0.249733
    100 H41         6.2320    1.2900    1.8280 hn        1 MOL      0.349436
    101 H42         6.0830    3.5320    3.8110 h1        1 MOL      0.142489
    102 H43         6.3730    1.9490    5.7480 hc        1 MOL     -0.002522
    103 H44         7.0370   -0.2290    5.4290 hc        1 MOL      0.054283
    104 H45         5.7450   -0.1860    4.2960 hc        1 MOL      0.054283
    105 H46         7.1640   -0.0490    3.5690 hc        1 MOL      0.054283
    106 H47         8.7600    1.4520    5.3500 hc        1 MOL      0.054283
    107 H48         8.6470    2.2880    3.8070 hc        1 MOL      0.054283
    108 H49         8.2710    3.1640    5.2990 hc        1 MOL      0.054283
    109 N10         3.7050    1.6070    2.8530 n         1 MOL     -0.366089
    110 C35         2.2420    1.4740    2.7820 c3        1 MOL      0.371136
    111 C36         1.6840    2.1810    1.5230 c         1 MOL      0.573382
    112 O17         2.4210    2.7410    0.7070 o         1 MOL     -0.564123
    113 C37         1.9530   -0.0300    2.9650 c3        1 MOL     -0.321106
    114 C38         0.6750   -0.5750    2.3240 c         1 MOL      0.658974
    115 N11         0.7360   -1.4110    1.3050 n         1 MOL     -0.940354
    116 O18        -0.4310   -0.1730    2.7240 o         1 MOL     -0.621102
    117 H50         4.1460    1.3170    1.9980 hn        1 MOL      0.226728
    118 H51         1.8770    2.0820    3.6150 h1        1 MOL      0.001173
    119 H52         1.7700   -0.3470    3.9860 hc        1 MOL      0.069480
    120 H53         2.7530   -0.6380    2.5510 hc        1 MOL      0.069480
    121 H54         1.6610   -1.6260    0.9600 hn        1 MOL      0.474090
    122 H55        -0.1160   -1.8430    1.0010 hn        1 MOL      0.474090
    123 N12         0.3710    2.0350    1.3800 n         1 MOL     -0.717197
    124 C39        -0.3060    2.5610    0.2040 c3        1 MOL      0.280752
    125 C40        -1.6660    3.2180    0.4550 c         1 MOL      0.662262
    126 O19        -2.4510    2.6790    1.2400 o         1 MOL     -0.591708
    127 C41        -0.4960    1.5100   -0.9130 c3        1 MOL      0.089215
    128 C42        -1.2590    1.9110   -2.1680 ca        1 MOL     -0.147517
    129 C43        -0.7520    2.9960   -2.8970 ca        1 MOL     -0.044790
    130 C44        -2.4560    1.2720   -2.5530 ca        1 MOL     -0.044790
    131 C45        -1.4800    3.5540   -3.9520 ca        1 MOL     -0.299167
    132 C46        -3.2560    1.8740   -3.5770 ca        1 MOL     -0.299167
    133 C47        -2.7260    3.0190   -4.2560 ca        1 MOL      0.340839
    134 O20        -3.5000    3.4420   -5.2580 oh        1 MOL     -0.489292
    135 H56        -0.1990    1.4940    2.0060 hn        1 MOL      0.320573
    136 H57         0.3390    3.3160   -0.2460 h1        1 MOL      0.025691
    137 H58        -1.0620    0.6470   -0.5450 hc        1 MOL      0.038885
    138 H59         0.4570    1.0650   -1.2040 hc        1 MOL      0.038885
    139 H60         0.2550    3.3100   -2.6780 ha        1 MOL      0.104212
    140 H61        -2.7990    0.3530   -2.0870 ha        1 MOL      0.104212
    141 H62        -1.1490    4.4080   -4.5250 ha        1 MOL      0.140842
    142 H63        -4.1560    1.3410   -3.8560 ha        1 MOL      0.140842
    143 H64        -3.0290    4.1150   -5.7580 ho        1 MOL      0.359886
    144 N13        -1.8960    4.3260   -0.2250 n         1 MOL     -0.694631
    145 C48        -3.1620    5.0100   -0.1370 c3        1 MOL      0.362705
    146 C49        -4.1570    4.8100   -1.2710 c         1 MOL      0.576102
    147 O21        -4.1820    5.6290   -2.1500 o         1 MOL     -0.572446
    148 C50        -3.0220    6.5450    0.2850 c3        1 MOL      0.172936
    149 C51        -4.1280    6.9790    1.1650 c3        1 MOL     -0.224486
    150 C52        -4.5500    8.4510    0.9800 c         1 MOL      0.708314
    151 O22        -5.7810    8.7560    1.0310 o         1 MOL     -0.671253
    152 O23        -3.6480    9.3000    0.7690 o         1 MOL     -0.671253
    153 H65        -1.1710    4.7430   -0.7940 hn        1 MOL      0.276953
    154 H66        -3.6840    4.5160    0.6840 h1        1 MOL     -0.023584
    155 H67        -3.0080    7.2250   -0.5660 hc        1 MOL     -0.060929
    156 H68        -2.1090    6.6130    0.8820 hc        1 MOL     -0.060929
    157 H69        -3.9860    6.6640    2.2010 hc        1 MOL      0.047179
    158 H70        -5.0020    6.4900    0.7220 hc        1 MOL      0.047179
    159 N14        -4.9660    3.7490   -1.3050 n         1 MOL     -0.467154
    160 C53        -5.2230    2.7040   -0.2540 c3        1 MOL      0.062327
    161 C54        -5.8790    3.3320    1.0200 c         1 MOL      0.365049
    162 O24        -6.4640    4.4250    0.9840 o         1 MOL     -0.497949
    163 C55        -6.1920    1.7420   -0.9180 c3        1 MOL     -0.264196
    164 C56        -7.6680    2.1440   -0.8240 c3        1 MOL     -0.346734
    165 C57        -8.5280    1.1450   -1.5640 c         1 MOL      0.558079
    166 O25        -8.4680    1.0760   -2.8120 o         1 MOL     -0.644529
    167 O26        -9.0220    0.1990   -0.9400 o         1 MOL     -0.644529
    168 H71        -5.4870    3.6600   -2.1640 hn        1 MOL      0.297346
    169 H72        -4.3160    2.2240    0.1040 h1        1 MOL      0.079278
    170 H73        -6.0550    0.8120   -0.3550 hc        1 MOL      0.156958
    171 H74        -6.0100    1.6330   -1.9800 hc        1 MOL      0.156958
    172 H75        -7.7560    3.1430   -1.2540 hc        1 MOL      0.131759
    173 H76        -7.9430    2.1290    0.2240 hc        1 MOL      0.131759
    174 N15        -5.9340    2.6060    2.1490 n         1 MOL     -0.100032
    175 C58        -6.6020    3.0200    3.4050 c3        1 MOL     -0.601309
    176 H77        -6.9760    4.0380    3.2980 h1        1 MOL      0.191377
    177 H78        -7.4340    2.3480    3.6140 h1        1 MOL      0.191377
    178 H79        -5.8860    2.9810    4.2270 h1        1 MOL      0.191377
    179 H80        -5.2670    1.8490    2.2240 hn        1 MOL      0.214032
    180 Ca1        -9.0170   -2.1810   -0.6360 Ca        1 MOL      1.732051
    181 O27       -10.4700   -1.8570    1.6190 oh        1 MOL     -0.994594
    182 H81       -10.3520   -2.2810    2.4660 ho        1 MOL      0.460763
    183 H82       -10.5220   -0.9190    1.8210 ho        1 MOL      0.460763
    184 O28        -8.4980   -4.1970   -2.2500 oh        1 MOL     -0.994594
    185 H83        -8.6610   -4.5170   -3.1340 ho        1 MOL      0.460763
    186 H84        -7.6510   -4.5630   -2.0130 ho        1 MOL      0.460763
    187 O29       -10.9280   -2.2870   -2.5930 oh        1 MOL     -0.994594
    188 H85       -11.1300   -1.6800   -3.2900 ho        1 MOL      0.460763
    189 H86       -11.2400   -3.1310   -2.9170 ho        1 MOL      0.460763
    190 O30        -7.3770   -0.8490    1.2120 oh        1 MOL     -0.994594
    191 H87        -6.7790   -0.4610    0.5760 ho        1 MOL      0.460763
    192 H88        -6.8280   -1.0580    1.9620 ho        1 MOL      0.460763
@<TRIPOS>BOND
     1    1    2 1   
     2    1    4 1   
     3    1    5 1   
     4    1    6 1   
     5    2    3 2   
     6    2    7 1   
     7    7    8 1   
     8    7   15 1   
     9    8    9 1   
    10    8   11 1   
    11    8   16 1   
    12    9   10 2   
    13    9   19 1   
    14   11   12 1   
    15   11   17 1   
    16   11   18 1   
    17   12   13 1   
    18   12   14 1   
    19   19   20 1   
    20   19   27 1   
    21   20   21 1   
    22   20   23 1   
    23   20   28 1   
    24   21   22 2   
    25   21   38 1   
    26   23   24 1   
    27   23   25 1   
    28   23   29 1   
    29   24   26 1   
    30   24   30 1   
    31   24   31 1   
    32   25   32 1   
    33   25   33 1   
    34   25   34 1   
    35   26   35 1   
    36   26   36 1   
    37   26   37 1   
    38   38   39 1   
    39   38   46 1   
    40   39   40 1   
    41   39   42 1   
    42   39   47 1   
    43   40   41 2   
    44   40   50 1   
    45   42   43 1   
    46   42   48 1   
    47   42   49 1   
    48   43   44 1   
    49   43   45 1   
    50   50   51 1   
    51   50   54 1   
    52   51   52 1   
    53   51   55 1   
    54   51   56 1   
    55   52   53 2   
    56   52   57 1   
    57   57   58 1   
    58   57   65 1   
    59   58   59 1   
    60   58   61 1   
    61   58   66 1   
    62   59   60 2   
    63   59   69 1   
    64   61   62 1   
    65   61   67 1   
    66   61   68 1   
    67   62   63 1   
    68   62   64 1   
    69   69   70 1   
    70   69   73 1   
    71   70   71 1   
    72   70   74 1   
    73   70   75 1   
    74   71   72 2   
    75   71   76 1   
    76   76   77 1   
    77   76   85 1   
    78   77   78 1   
    79   77   80 1   
    80   77   86 1   
    81   78   79 2   
    82   78   93 1   
    83   80   81 1   
    84   80   87 1   
    85   80   88 1   
    86   81   82 1   
    87   81   89 1   
    88   81   90 1   
    89   82   83 1   
    90   82   84 2   
    91   83   91 1   
    92   83   92 1   
    93   93   94 1   
    94   93  100 1   
    95   94   95 1   
    96   94   97 1   
    97   94  101 1   
    98   95   96 2   
    99   95  109 1   
   100   97   98 1   
   101   97   99 1   
   102   97  102 1   
   103   98  103 1   
   104   98  104 1   
   105   98  105 1   
   106   99  106 1   
   107   99  107 1   
   108   99  108 1   
   109  109  110 1   
   110  109  117 1   
   111  110  111 1   
   112  110  113 1   
   113  110  118 1   
   114  111  112 2   
   115  111  123 1   
   116  113  114 1   
   117  113  119 1   
   118  113  120 1   
   119  114  115 1   
   120  114  116 2   
   121  115  121 1   
   122  115  122 1   
   123  123  124 1   
   124  123  135 1   
   125  124  125 1   
   126  124  127 1   
   127  124  136 1   
   128  125  126 2   
   129  125  144 1   
   130  127  128 1   
   131  127  137 1   
   132  127  138 1   
   133  128  129 ar  
   134  128  130 ar  
   135  129  131 ar  
   136  129  139 1   
   137  130  132 ar  
   138  130  140 1   
   139  131  133 ar  
   140  131  141 1   
   141  132  133 ar  
   142  132  142 1   
   143  133  134 1   
   144  134  143 1   
   145  144  145 1   
   146  144  153 1   
   147  145  146 1   
   148  145  148 1   
   149  145  154 1   
   150  146  147 2   
   151  146  159 1   
   152  148  149 1   
   153  148  155 1   
   154  148  156 1   
   155  149  150 1   
   156  149  157 1   
   157  149  158 1   
   158  150  151 1   
   159  150  152 1   
   160  159  160 1   
   161  159  168 1   
   162  160  161 1   
   163  160  163 1   
   164  160  169 1   
   165  161  162 2   
   166  161  174 1   
   167  163  164 1   
   168  163  170 1   
   169  163  171 1   
   170  164  165 1   
   171  164  172 1   
   172  164  173 1   
   173  165  166 1   
   174  165  167 1   
   175  174  175 1   
   176  174  179 1   
   177  175  176 1   
   178  175  177 1   
   179  175  178 1   
   180  181  182 1   
   181  181  183 1   
   182  184  185 1   
   183  184  186 1   
   184  187  188 1   
   185  187  189 1   
   186  190  191 1   
   187  190  192 1   
@<TRIPOS>SUBSTRUCTURE
     1 MOL         1 TEMP              0 ****  ****    0 ROOT
