@<TRIPOS>MOLECULE
MOL
  186   183     1     0     0
SMALL
resp


@<TRIPOS>ATOM
      1 C1         12.1180    4.3190   -3.3240 c3        1 MOL     -0.717021
      2 C2         11.8040    3.3470   -2.2110 c         1 MOL      0.839146
      3 O1         12.4300    2.2800   -1.9830 o         1 MOL     -0.630792
      4 H1         11.5840    4.0220   -4.2280 hc        1 MOL      0.193534
      5 H2         11.8040    5.3210   -3.0310 hc        1 MOL      0.193534
      6 H3         13.1910    4.3160   -3.5190 hc        1 MOL      0.193534
      7 N1         10.6740    3.6770   -1.5210 n         1 MOL     -0.314643
      8 C3         10.3740    3.0350   -0.2360 c3        1 MOL     -0.388162
      9 C4          9.2140    2.0610   -0.2170 c         1 MOL      0.317067
     10 O2          8.3880    2.0400   -1.1290 o         1 MOL     -0.421723
     11 C5         10.1660    4.1360    0.8090 c3        1 MOL      0.324445
     12 C6          9.1880    5.2800    0.4200 c         1 MOL      0.826994
     13 O3          8.4390    5.2930   -0.6320 o         1 MOL     -0.744770
     14 O4          9.2860    6.3760    1.0250 o         1 MOL     -0.744770
     15 H4         10.4170    4.6220   -1.7630 hn        1 MOL      0.081160
     16 H5         11.2420    2.4850    0.1250 h1        1 MOL      0.119184
     17 H6         11.1350    4.5610    1.0920 hc        1 MOL     -0.046183
     18 H7          9.7840    3.7590    1.7610 hc        1 MOL     -0.046183
     19 N2          9.3860    1.0290    0.5920 n         1 MOL     -0.224617
     20 C7          8.7790   -0.3010    0.4510 c3        1 MOL     -0.081713
     21 C8          7.3540   -0.3220    0.9930 c         1 MOL      0.626317
     22 O5          6.7690   -1.3960    1.2820 o         1 MOL     -0.475420
     23 C9          9.7050   -1.4530    1.0670 c3        1 MOL     -0.461706
     24 C10        11.1730   -1.2390    0.7150 c3        1 MOL      0.316024
     25 C11        12.0460   -2.4920    1.0240 c3        1 MOL     -0.125508
     26 C12        13.5130   -2.5630    0.5080 c3        1 MOL     -0.023182
     27 N3         13.6520   -2.4450   -0.9350 n4        1 MOL     -0.264908
     28 H8         10.1160    1.1760    1.2800 hn        1 MOL      0.264187
     29 H9          8.7680   -0.4390   -0.6310 h1        1 MOL      0.153726
     30 H10         9.3550   -2.4190    0.7170 hc        1 MOL      0.151786
     31 H11         9.6490   -1.3340    2.1510 hc        1 MOL      0.151786
     32 H12        11.5930   -0.3400    1.1690 hc        1 MOL     -0.038194
     33 H13        11.2420   -1.1490   -0.3730 hc        1 MOL     -0.038194
     34 H14        11.5670   -3.4070    0.6540 hc        1 MOL      0.070937
     35 H15        12.1340   -2.5520    2.1100 hc        1 MOL      0.070937
     36 H16        13.9570   -3.4880    0.8870 hx        1 MOL      0.088719
     37 H17        14.1950   -1.8920    1.0350 hx        1 MOL      0.088719
     38 H18        14.5970   -2.6920   -1.2310 hn        1 MOL      0.261958
     39 H19        13.0820   -3.1220   -1.4230 hn        1 MOL      0.261958
     40 H20        13.4880   -1.5030   -1.2340 hn        1 MOL      0.261958
     41 N4          6.7430    0.8290    1.2190 n         1 MOL     -0.428297
     42 C13         5.2640    0.9490    1.1520 c3        1 MOL     -0.126614
     43 C14         4.7950    0.9390   -0.3160 c         1 MOL      0.293108
     44 O6          5.4690    1.5380   -1.2110 o         1 MOL     -0.614765
     45 C15         4.7680    2.1700    2.0070 c3        1 MOL     -0.050492
     46 C16         5.4470    3.5190    1.6800 c         1 MOL      0.403114
     47 O7          5.3430    4.3800    2.5970 o         1 MOL     -0.597088
     48 O8          6.0620    3.7500    0.6530 o         1 MOL     -0.597088
     49 H21         7.1960    1.7320    1.2490 hn        1 MOL      0.306302
     50 H22         4.8230    0.0680    1.6240 h1        1 MOL      0.127163
     51 H23         5.1350    1.9240    3.0000 hc        1 MOL      0.092324
     52 H24         3.6940    2.1930    2.1910 hc        1 MOL      0.092324
     53 N5          3.6930    0.2320   -0.7280 n         1 MOL     -0.080590
     54 C17         2.8150   -0.6440    0.0130 c3        1 MOL     -0.278734
     55 C18         3.4040   -1.9580    0.2740 c         1 MOL      0.733723
     56 O9          4.1420   -2.5180   -0.4970 o         1 MOL     -0.593380
     57 H25         3.3960    0.5530   -1.6340 hn        1 MOL      0.196833
     58 H26         1.8580   -0.8470   -0.4630 h1        1 MOL      0.089765
     59 H27         2.6540   -0.1910    0.9940 h1        1 MOL      0.089765
     60 N6          3.1520   -2.4970    1.4510 n         1 MOL     -0.404071
     61 C19         3.8710   -3.6000    2.0040 c3        1 MOL     -0.180935
     62 C20         3.1220   -4.8480    1.8860 c         1 MOL      0.583501
     63 O10         2.1680   -5.0830    2.6410 o         1 MOL     -0.498524
     64 C21         4.2610   -3.1510    3.3940 c3        1 MOL     -0.086422
     65 C22         5.2670   -4.0770    4.1090 c         1 MOL      0.706212
     66 O11         5.4580   -3.8610    5.3550 o         1 MOL     -0.659547
     67 O12         5.8020   -5.0050    3.4680 o         1 MOL     -0.659547
     68 H28         2.5250   -2.0050    2.0690 hn        1 MOL      0.297903
     69 H29         4.7650   -3.6780    1.3920 h1        1 MOL      0.096878
     70 H30         3.3410   -3.0270    3.9510 hc        1 MOL      0.025813
     71 H31         4.6710   -2.1440    3.3630 hc        1 MOL      0.025813
     72 N7          3.3500   -5.6370    0.7910 n         1 MOL     -0.398055
     73 C23         2.4070   -6.6910    0.2920 c3        1 MOL     -0.152548
     74 C24         1.0750   -6.2020   -0.2600 c         1 MOL      0.497430
     75 O13         0.1370   -7.0220   -0.3650 o         1 MOL     -0.555559
     76 H32         4.2090   -5.4620    0.2860 hn        1 MOL      0.286056
     77 H33         2.2910   -7.4560    1.0690 h1        1 MOL      0.116832
     78 H34         2.8380   -7.2100   -0.5660 h1        1 MOL      0.116832
     79 N8          1.0300   -4.9470   -0.6570 n         1 MOL     -0.218487
     80 C25        -0.1490   -4.3850   -1.2840 c3        1 MOL     -0.162460
     81 C26        -0.6670   -3.0600   -0.6120 c         1 MOL      0.676195
     82 O14         0.0950   -2.3990    0.0650 o         1 MOL     -0.565150
     83 C27        -0.0090   -4.0540   -2.7530 c3        1 MOL      0.571748
     84 C28         0.9790   -2.9630   -3.2560 c3        1 MOL     -0.407097
     85 O15         0.1670   -5.2250   -3.5010 oh        1 MOL     -0.646155
     86 H35         1.8250   -4.3420   -0.4710 hn        1 MOL      0.176539
     87 H36        -0.9380   -5.1350   -1.1620 h1        1 MOL      0.063623
     88 H37        -0.9550   -3.6010   -3.0500 h1        1 MOL     -0.117038
     89 H38        -0.6290   -5.7650   -3.4460 ho        1 MOL      0.388702
     90 H39         1.0520   -2.1280   -2.5620 hc        1 MOL      0.110342
     91 H40         1.9550   -3.4570   -3.3190 hc        1 MOL      0.110342
     92 H41         0.6290   -2.6130   -4.2240 hc        1 MOL      0.110342
     93 N9         -1.9680   -2.7560   -0.7830 n         1 MOL     -0.351106
     94 C29        -2.5860   -1.4970   -0.3470 c3        1 MOL     -0.567059
     95 C30        -4.1490   -1.6800   -0.0270 c         1 MOL      0.796702
     96 O16        -4.7120   -0.6660    0.2890 o         1 MOL     -0.544642
     97 C31        -2.3720   -0.3190   -1.3840 c3        1 MOL      0.445629
     98 C32        -2.7950   -0.8950   -2.7630 c3        1 MOL     -0.061512
     99 C33        -0.9950    0.3240   -1.4200 c3        1 MOL     -0.401834
    100 C34        -3.0340    0.1280   -3.8830 c3        1 MOL     -0.159931
    101 H42        -2.5880   -3.2830   -1.3860 hn        1 MOL      0.181824
    102 H43        -2.0230   -1.3200    0.5740 h1        1 MOL      0.227443
    103 H44        -3.1210    0.4360   -1.1630 hc        1 MOL     -0.008464
    104 H45        -3.8000   -1.3140   -2.6250 hc        1 MOL      0.045041
    105 H46        -2.0550   -1.5640   -3.2040 hc        1 MOL      0.045041
    106 H47        -0.2330   -0.3560   -1.7950 hc        1 MOL      0.093477
    107 H48        -1.1910    1.2870   -1.8910 hc        1 MOL      0.093477
    108 H49        -0.7170    0.5840   -0.3990 hc        1 MOL      0.093477
    109 H50        -3.2250   -0.4080   -4.8060 hc        1 MOL      0.032766
    110 H51        -3.8350    0.8160   -3.6150 hc        1 MOL      0.032766
    111 H52        -2.1120    0.7090   -3.9640 hc        1 MOL      0.032766
    112 N10        -4.7620   -2.8870   -0.0980 n         1 MOL     -0.573470
    113 C35        -6.0860   -3.2040    0.3410 c3        1 MOL     -0.013859
    114 C36        -7.0930   -2.9160   -0.7650 c         1 MOL      0.725621
    115 O17        -6.8870   -3.3890   -1.9150 o         1 MOL     -0.574901
    116 C37        -6.2360   -4.6730    0.8160 c3        1 MOL      0.231253
    117 C38        -5.3260   -5.2090    1.9000 c3        1 MOL     -0.207997
    118 O18        -7.5230   -4.8910    1.3330 oh        1 MOL     -0.614596
    119 H53        -4.2300   -3.6710   -0.4360 hn        1 MOL      0.327617
    120 H54        -6.3420   -2.5630    1.1740 h1        1 MOL      0.112709
    121 H55        -6.1110   -5.3120   -0.0650 h1        1 MOL      0.010728
    122 H56        -7.4900   -5.8250    1.5300 ho        1 MOL      0.403005
    123 H57        -5.6520   -4.8810    2.8860 hc        1 MOL      0.067829
    124 H58        -5.4050   -6.2840    2.0570 hc        1 MOL      0.067829
    125 H59        -4.2630   -5.0020    1.7590 hc        1 MOL      0.067829
    126 N11        -8.2070   -2.2340   -0.4780 n         1 MOL     -0.772014
    127 C39        -9.3210   -1.9770   -1.5290 c3        1 MOL      0.178262
    128 C40        -9.7410   -0.5030   -1.6280 c         1 MOL      0.666827
    129 O19        -9.9210    0.0120   -2.7250 o         1 MOL     -0.581642
    130 C41       -10.5780   -2.8550   -1.2290 c3        1 MOL      0.340536
    131 C42       -11.5630   -2.6530   -2.3930 c3        1 MOL     -0.413882
    132 O20       -11.2910   -2.5230   -0.0030 oh        1 MOL     -0.652116
    133 H60        -8.3410   -1.9780    0.4940 hn        1 MOL      0.377182
    134 H61        -9.0070   -2.2190   -2.5380 h1        1 MOL      0.070949
    135 H62       -10.3540   -3.9210   -1.1850 h1        1 MOL      0.025198
    136 H63       -12.0150   -3.1360   -0.0600 ho        1 MOL      0.396324
    137 H64       -12.1030   -1.7360   -2.1740 hc        1 MOL      0.099196
    138 H65       -11.0800   -2.4290   -3.3420 hc        1 MOL      0.099196
    139 H66       -12.1910   -3.5360   -2.4160 hc        1 MOL      0.099196
    140 N12        -9.9010    0.2270   -0.5130 n         1 MOL     -0.443618
    141 C43       -10.1670    1.6700   -0.3380 c3        1 MOL     -0.050398
    142 C44        -9.2640    2.4680    0.5480 c         1 MOL      0.722789
    143 O21        -8.8610    1.8830    1.5080 o         1 MOL     -0.548992
    144 C45       -11.6240    1.8110    0.1590 c3        1 MOL     -0.167214
    145 C46       -12.7510    1.2540   -0.7280 c3        1 MOL      0.005526
    146 C47       -14.0880    1.3900   -0.0790 c3        1 MOL     -0.099238
    147 C48       -14.4000    0.2730    0.8870 c3        1 MOL      0.090714
    148 N13       -15.8240    0.3300    1.2520 n4        1 MOL     -0.228919
    149 H67        -9.6930   -0.2530    0.3480 hn        1 MOL      0.275895
    150 H68       -10.0720    2.0790   -1.3430 h1        1 MOL      0.109611
    151 H69       -11.8680    2.8600    0.2950 hc        1 MOL      0.074637
    152 H70       -11.7280    1.3200    1.1340 hc        1 MOL      0.074637
    153 H71       -12.4990    0.2240   -0.9920 hc        1 MOL      0.039869
    154 H72       -12.8460    1.8670   -1.6190 hc        1 MOL      0.039869
    155 H73       -14.8290    1.4080   -0.8830 hc        1 MOL      0.045387
    156 H74       -14.1930    2.2750    0.5420 hc        1 MOL      0.045387
    157 H75       -13.7560    0.5240    1.7290 hx        1 MOL      0.056360
    158 H76       -14.0980   -0.6690    0.4250 hx        1 MOL      0.056360
    159 H77       -15.9990   -0.2990    2.0220 hn        1 MOL      0.237788
    160 H78       -15.9780    1.3040    1.4530 hn        1 MOL      0.237788
    161 H79       -16.4470    0.1420    0.4770 hn        1 MOL      0.237788
    162 N14        -8.8320    3.6990    0.2930 n         1 MOL     -0.660876
    163 C49        -7.9570    4.5530    1.2040 c3        1 MOL      0.260273
    164 C50        -6.5300    4.1510    1.1060 c         1 MOL      0.400849
    165 O22        -5.8920    3.6240    2.0510 o         1 MOL     -0.515820
    166 C51        -8.2370    6.0380    1.0780 c3        1 MOL     -0.054457
    167 C52        -7.3210    6.9650    1.9710 c3        1 MOL     -0.180877
    168 C53        -7.9010    8.4240    2.0140 c         1 MOL      0.684990
    169 O23        -8.7330    8.6970    2.8870 o         1 MOL     -0.626794
    170 O24        -7.6980    9.2290    1.1060 o         1 MOL     -0.626794
    171 H80        -9.1760    4.1350   -0.5530 hn        1 MOL      0.280429
    172 H81        -8.1940    4.2200    2.2130 h1        1 MOL      0.058724
    173 H82        -9.2380    6.1750    1.4930 hc        1 MOL      0.034857
    174 H83        -8.1940    6.3900    0.0440 hc        1 MOL      0.034857
    175 H84        -6.3250    6.8710    1.5230 hc        1 MOL      0.027022
    176 H85        -7.2510    6.5240    2.9710 hc        1 MOL      0.027022
    177 N15        -5.8290    4.3540   -0.0660 n         1 MOL     -0.286683
    178 C54        -6.2960    4.8430   -1.3870 c3        1 MOL     -0.111368
    179 H86        -6.4080    4.0000   -2.0670 h1        1 MOL      0.070518
    180 H87        -7.2570    5.3450   -1.2700 h1        1 MOL      0.070518
    181 H88        -5.5680    5.5440   -1.7940 h1        1 MOL      0.070518
    182 H89        -4.8500    4.1180    0.0100 hn        1 MOL      0.250877
    183 Ca1         6.4520    4.0760   -1.8800 Ca        1 MOL      1.649429
    184 O25         8.1090    2.8400   -3.7040 oh        1 MOL     -0.878587
    185 H90         8.9280    2.5040   -3.3400 ho        1 MOL      0.421939
    186 H91         8.2640    2.8770   -4.6490 ho        1 MOL      0.421939
@<TRIPOS>BOND
     1    1    2 1   
     2    1    4 1   
     3    1    5 1   
     4    1    6 1   
     5    2    3 2   
     6    2    7 1   
     7    7    8 1   
     8    7   15 1   
     9    8    9 1   
    10    8   11 1   
    11    8   16 1   
    12    9   10 2   
    13    9   19 1   
    14   11   12 1   
    15   11   17 1   
    16   11   18 1   
    17   12   13 1   
    18   12   14 1   
    19   19   20 1   
    20   19   28 1   
    21   20   21 1   
    22   20   23 1   
    23   20   29 1   
    24   21   22 2   
    25   21   41 1   
    26   23   24 1   
    27   23   30 1   
    28   23   31 1   
    29   24   25 1   
    30   24   32 1   
    31   24   33 1   
    32   25   26 1   
    33   25   34 1   
    34   25   35 1   
    35   26   27 1   
    36   26   36 1   
    37   26   37 1   
    38   27   38 1   
    39   27   39 1   
    40   27   40 1   
    41   41   42 1   
    42   41   49 1   
    43   42   43 1   
    44   42   45 1   
    45   42   50 1   
    46   43   44 2   
    47   43   53 1   
    48   45   46 1   
    49   45   51 1   
    50   45   52 1   
    51   46   47 1   
    52   46   48 1   
    53   53   54 1   
    54   53   57 1   
    55   54   55 1   
    56   54   58 1   
    57   54   59 1   
    58   55   56 2   
    59   55   60 1   
    60   60   61 1   
    61   60   68 1   
    62   61   62 1   
    63   61   64 1   
    64   61   69 1   
    65   62   63 2   
    66   62   72 1   
    67   64   65 1   
    68   64   70 1   
    69   64   71 1   
    70   65   66 1   
    71   65   67 1   
    72   72   73 1   
    73   72   76 1   
    74   73   74 1   
    75   73   77 1   
    76   73   78 1   
    77   74   75 2   
    78   74   79 1   
    79   79   80 1   
    80   79   86 1   
    81   80   81 1   
    82   80   83 1   
    83   80   87 1   
    84   81   82 2   
    85   81   93 1   
    86   83   84 1   
    87   83   85 1   
    88   83   88 1   
    89   84   90 1   
    90   84   91 1   
    91   84   92 1   
    92   85   89 1   
    93   93   94 1   
    94   93  101 1   
    95   94   95 1   
    96   94   97 1   
    97   94  102 1   
    98   95   96 2   
    99   95  112 1   
   100   97   98 1   
   101   97   99 1   
   102   97  103 1   
   103   98  100 1   
   104   98  104 1   
   105   98  105 1   
   106   99  106 1   
   107   99  107 1   
   108   99  108 1   
   109  100  109 1   
   110  100  110 1   
   111  100  111 1   
   112  112  113 1   
   113  112  119 1   
   114  113  114 1   
   115  113  116 1   
   116  113  120 1   
   117  114  115 2   
   118  114  126 1   
   119  116  117 1   
   120  116  118 1   
   121  116  121 1   
   122  117  123 1   
   123  117  124 1   
   124  117  125 1   
   125  118  122 1   
   126  126  127 1   
   127  126  133 1   
   128  127  128 1   
   129  127  130 1   
   130  127  134 1   
   131  128  129 2   
   132  128  140 1   
   133  130  131 1   
   134  130  132 1   
   135  130  135 1   
   136  131  137 1   
   137  131  138 1   
   138  131  139 1   
   139  132  136 1   
   140  140  141 1   
   141  140  149 1   
   142  141  142 1   
   143  141  144 1   
   144  141  150 1   
   145  142  143 2   
   146  142  162 1   
   147  144  145 1   
   148  144  151 1   
   149  144  152 1   
   150  145  146 1   
   151  145  153 1   
   152  145  154 1   
   153  146  147 1   
   154  146  155 1   
   155  146  156 1   
   156  147  148 1   
   157  147  157 1   
   158  147  158 1   
   159  148  159 1   
   160  148  160 1   
   161  148  161 1   
   162  162  163 1   
   163  162  171 1   
   164  163  164 1   
   165  163  166 1   
   166  163  172 1   
   167  164  165 2   
   168  164  177 1   
   169  166  167 1   
   170  166  173 1   
   171  166  174 1   
   172  167  168 1   
   173  167  175 1   
   174  167  176 1   
   175  168  169 1   
   176  168  170 1   
   177  177  178 1   
   178  177  182 1   
   179  178  179 1   
   180  178  180 1   
   181  178  181 1   
   182  184  185 1   
   183  184  186 1   
@<TRIPOS>SUBSTRUCTURE
     1 MOL         1 TEMP              0 ****  ****    0 ROOT
