@<TRIPOS>MOLECULE
MOL
  201   193     1     0     0
SMALL
resp


@<TRIPOS>ATOM
      1 C1         10.2150    7.5910   -2.4030 c3        1 MOL     -0.326889
      2 C2          9.5580    6.6130   -1.4520 c         1 MOL      0.714043
      3 O1         10.2460    5.7940   -0.8250 o         1 MOL     -0.630889
      4 H1         11.2090    7.2280   -2.6660 hc        1 MOL      0.079409
      5 H2          9.6120    7.6820   -3.3060 hc        1 MOL      0.079409
      6 H3         10.3000    8.5660   -1.9230 hc        1 MOL      0.079409
      7 N1          8.2720    6.7480   -1.2050 n         1 MOL     -0.508781
      8 C3          7.5700    5.9910   -0.2250 c3        1 MOL      0.139301
      9 C4          7.3750    4.6020   -0.7340 c         1 MOL      0.629240
     10 O2          7.5880    4.2600   -1.8960 o         1 MOL     -0.568447
     11 C5          6.3930    6.6930    0.4080 c3        1 MOL     -0.246823
     12 C6          5.1990    6.9260   -0.5640 c         1 MOL      0.699863
     13 O3          4.0210    6.7120   -0.2510 o         1 MOL     -0.643536
     14 O4          5.4150    7.3680   -1.7320 o         1 MOL     -0.643536
     15 H4          7.6690    7.3360   -1.7660 hn        1 MOL      0.268132
     16 H5          8.2750    5.8620    0.6030 h1        1 MOL      0.029018
     17 H6          6.6370    7.6740    0.8120 hc        1 MOL      0.044213
     18 H7          6.0310    6.0680    1.2230 hc        1 MOL      0.044213
     19 N2          6.9830    3.7920    0.1820 n         1 MOL     -0.577948
     20 C7          6.7270    2.3880   -0.1010 c3        1 MOL      0.246976
     21 C8          5.3830    1.9300    0.5460 c         1 MOL      0.572860
     22 O5          5.0000    2.3860    1.6260 o         1 MOL     -0.548126
     23 C9          7.8480    1.5440    0.4150 c3        1 MOL     -0.344170
     24 C10         7.8960    0.0960   -0.2050 c3        1 MOL      0.184710
     25 C11         9.0030   -0.6380    0.5380 c3        1 MOL     -0.037305
     26 C12         9.4940   -1.7300   -0.5090 c3        1 MOL      0.010591
     27 N3         10.3800   -2.7730    0.1720 n4        1 MOL     -0.189208
     28 H8          6.6780    4.2150    1.0410 hn        1 MOL      0.309778
     29 H9          6.5890    2.1930   -1.1600 h1        1 MOL      0.044847
     30 H10         7.7230    1.4250    1.4950 hc        1 MOL      0.102241
     31 H11         8.8310    1.9760    0.2430 hc        1 MOL      0.102241
     32 H12         8.0090    0.1100   -1.2910 hc        1 MOL     -0.017776
     33 H13         6.9070   -0.3570   -0.1890 hc        1 MOL     -0.017776
     34 H14         8.5590   -1.1760    1.3720 hc        1 MOL      0.023185
     35 H15         9.8010    0.0120    0.8970 hc        1 MOL      0.023185
     36 H16         9.9250   -1.2190   -1.3720 hx        1 MOL      0.082902
     37 H17         8.5740   -2.2240   -0.8110 hx        1 MOL      0.082902
     38 H18         9.9060   -3.0380    1.0190 hn        1 MOL      0.248455
     39 H19        10.5890   -3.5920   -0.3620 hn        1 MOL      0.248455
     40 H20        11.2200   -2.4030    0.6080 hn        1 MOL      0.248455
     41 N4          4.7050    1.0340   -0.1560 n         1 MOL     -0.592776
     42 C13         3.4640    0.3650    0.3180 c3        1 MOL      0.203245
     43 C14         3.4320   -1.0170   -0.2750 c         1 MOL      0.436108
     44 O6          3.8180   -1.1860   -1.4590 o         1 MOL     -0.566696
     45 C15         2.2260    1.1410   -0.1810 c3        1 MOL     -0.153740
     46 C16         1.0430    1.1340    0.8430 c         1 MOL      0.785097
     47 O7         -0.0340    1.7160    0.5980 o         1 MOL     -0.778598
     48 O8          1.1990    0.6990    1.9810 o         1 MOL     -0.778598
     49 H21         5.0330    0.6690   -1.0360 hn        1 MOL      0.294868
     50 H22         3.4960    0.4060    1.4060 h1        1 MOL      0.073311
     51 H23         1.9080    0.7390   -1.1450 hc        1 MOL      0.078876
     52 H24         2.5250    2.1840   -0.3160 hc        1 MOL      0.078876
     53 N5          2.9560   -2.0460    0.3770 n         1 MOL     -0.296551
     54 C17         2.2090   -2.0730    1.6710 c3        1 MOL     -0.439895
     55 C18         2.2330   -3.5260    2.3230 c         1 MOL      0.741420
     56 O9          3.1560   -4.2390    2.2510 o         1 MOL     -0.593906
     57 H25         2.9860   -2.9360   -0.0980 hn        1 MOL      0.228401
     58 H26         1.1830   -1.8300    1.3910 h1        1 MOL      0.172554
     59 H27         2.6760   -1.3530    2.3400 h1        1 MOL      0.172554
     60 N6          1.2230   -3.8980    3.0640 n         1 MOL     -0.392827
     61 C19         0.9350   -5.2480    3.6570 c3        1 MOL      0.031291
     62 C20         0.2900   -6.1980    2.5740 c         1 MOL      0.557271
     63 O10        -0.7480   -5.9410    1.9650 o         1 MOL     -0.517735
     64 C21         0.0760   -5.0890    4.9570 c3        1 MOL     -0.393054
     65 C22        -1.0630   -4.1150    4.9750 c         1 MOL      0.958117
     66 O11        -2.2170   -4.5450    4.7330 o         1 MOL     -0.758604
     67 O12        -0.8340   -2.9790    5.4050 o         1 MOL     -0.758604
     68 H28         0.4360   -3.2730    3.0790 hn        1 MOL      0.123833
     69 H29         1.8940   -5.6920    3.8740 h1        1 MOL      0.080337
     70 H30         0.7900   -4.8700    5.7530 hc        1 MOL      0.082799
     71 H31        -0.3130   -6.0870    5.1540 hc        1 MOL      0.082799
     72 N7          1.0120   -7.2290    2.2250 n         1 MOL     -0.379136
     73 C23         0.7110   -8.3060    1.3160 c3        1 MOL     -0.131870
     74 C24         0.7540   -8.0390   -0.2000 c         1 MOL      0.476778
     75 O13         0.4340   -8.9730   -0.8850 o         1 MOL     -0.525270
     76 H32         1.9130   -7.3650    2.6510 hn        1 MOL      0.263329
     77 H33        -0.3030   -8.6240    1.5380 h1        1 MOL      0.114162
     78 H34         1.3370   -9.1880    1.4360 h1        1 MOL      0.114162
     79 N8          1.2030   -6.8380   -0.5930 n         1 MOL     -0.140015
     80 C25         1.1680   -6.2620   -1.9850 c3        1 MOL     -0.017163
     81 C26         1.3210   -4.7760   -1.8790 c         1 MOL      0.189356
     82 O14         2.0100   -4.2970   -0.9520 o         1 MOL     -0.363487
     83 C27         2.3550   -6.7230   -2.8730 c3        1 MOL      0.237583
     84 C28         3.8220   -6.5030   -2.3790 c3        1 MOL     -0.277917
     85 O15         2.1800   -8.1490   -3.1120 oh        1 MOL     -0.536345
     86 H35         1.4800   -6.1990    0.1310 hn        1 MOL      0.126321
     87 H36         0.2260   -6.4740   -2.4950 h1        1 MOL      0.063158
     88 H37         2.2270   -6.1370   -3.7810 h1        1 MOL     -0.004548
     89 H38         1.3220   -8.1560   -3.5440 ho        1 MOL      0.350372
     90 H39         4.5610   -6.8780   -3.0770 hc        1 MOL      0.089281
     91 H40         4.0500   -5.4610   -2.1670 hc        1 MOL      0.089281
     92 H41         3.9530   -6.9310   -1.3830 hc        1 MOL      0.089281
     93 N9          0.6840   -4.0300   -2.7700 n         1 MOL     -0.046352
     94 C29         0.6450   -2.5760   -2.7870 c3        1 MOL     -0.086259
     95 C30        -0.5270   -2.0690   -1.9460 c         1 MOL      0.561260
     96 O16        -0.4360   -0.9910   -1.3620 o         1 MOL     -0.482538
     97 C31         0.9040   -1.9320   -4.1120 c3        1 MOL      0.118405
     98 C32         1.6990   -2.7810   -5.0910 c3        1 MOL     -0.056085
     99 C33         1.5190   -0.5200   -3.9110 c3        1 MOL     -0.289102
    100 C34         3.1890   -2.9290   -4.8150 c3        1 MOL     -0.071892
    101 H42         0.1880   -4.4370   -3.5570 hn        1 MOL      0.205005
    102 H43         1.4810   -2.2780   -2.1610 h1        1 MOL      0.157529
    103 H44        -0.0960   -1.7970   -4.5430 hc        1 MOL     -0.044526
    104 H45         1.6460   -2.3820   -6.1080 hc        1 MOL      0.016434
    105 H46         1.2400   -3.7690   -5.1490 hc        1 MOL      0.016434
    106 H47         1.6220   -0.1040   -4.9120 hc        1 MOL      0.092093
    107 H48         0.8200    0.1270   -3.3770 hc        1 MOL      0.092093
    108 H49         2.4900   -0.6470   -3.4300 hc        1 MOL      0.092093
    109 H50         3.7240   -2.0300   -5.1340 hc        1 MOL      0.020616
    110 H51         3.3950   -3.1270   -3.7600 hc        1 MOL      0.020616
    111 H52         3.5920   -3.7580   -5.3880 hc        1 MOL      0.020616
    112 N10        -1.6800   -2.7960   -1.9910 n         1 MOL     -0.504430
    113 C35        -2.9120   -2.4760   -1.2090 c3        1 MOL      0.085319
    114 C36        -4.1740   -2.6720   -2.0530 c         1 MOL      0.707427
    115 O17        -4.1590   -3.3200   -3.0810 o         1 MOL     -0.541189
    116 C37        -2.9000   -3.4250    0.0150 c3        1 MOL      0.055998
    117 C38        -3.1180   -4.9360   -0.2200 c3        1 MOL     -0.423969
    118 O18        -1.8160   -3.2570    0.8430 oh        1 MOL     -0.514572
    119 H53        -1.6240   -3.6580   -2.5080 hn        1 MOL      0.243630
    120 H54        -2.8690   -1.4330   -0.8770 h1        1 MOL      0.028072
    121 H55        -3.7630   -3.0650    0.5740 h1        1 MOL      0.054001
    122 H56        -1.7520   -3.9520    1.4890 ho        1 MOL      0.453190
    123 H57        -3.5210   -5.3420    0.7030 hc        1 MOL      0.127955
    124 H58        -3.8150   -5.0890   -1.0390 hc        1 MOL      0.127955
    125 H59        -2.2510   -5.5460   -0.5020 hc        1 MOL      0.127955
    126 N11        -5.3010   -2.0480   -1.6930 n         1 MOL     -0.569610
    127 C39        -6.5450   -1.9150   -2.4720 c3        1 MOL      0.004480
    128 C40        -6.9160   -0.4170   -2.5500 c         1 MOL      0.536557
    129 O19        -7.2100    0.1610   -3.5550 o         1 MOL     -0.544626
    130 C41        -7.7650   -2.5570   -1.7570 c3        1 MOL      0.232888
    131 C42        -9.1080   -2.1250   -2.2670 c3        1 MOL     -0.307343
    132 O20        -7.7190   -2.3780   -0.4050 oh        1 MOL     -0.584690
    133 H60        -5.2370   -1.4880   -0.8630 hn        1 MOL      0.280641
    134 H61        -6.4670   -2.3560   -3.4620 h1        1 MOL      0.110271
    135 H62        -7.5930   -3.6330   -1.8080 h1        1 MOL      0.032848
    136 H63        -7.1580   -3.0630   -0.0260 ho        1 MOL      0.399085
    137 H64        -9.9600   -2.6540   -1.8520 hc        1 MOL      0.096723
    138 H65        -9.2720   -1.0730   -2.0500 hc        1 MOL      0.096723
    139 H66        -9.2070   -2.2880   -3.3400 hc        1 MOL      0.096723
    140 N12        -6.9240    0.2980   -1.4180 n         1 MOL     -0.329106
    141 C43        -7.0790    1.7600   -1.2700 c3        1 MOL      0.076754
    142 C44        -6.0380    2.3210   -0.2640 c         1 MOL      0.505528
    143 O21        -5.9730    1.8540    0.8800 o         1 MOL     -0.529051
    144 C45        -8.5010    2.0030   -0.7500 c3        1 MOL     -0.223214
    145 C46        -8.9400    3.5300   -0.7880 c3        1 MOL      0.040118
    146 C47       -10.3980    3.8200   -0.3690 c3        1 MOL      0.220809
    147 C48       -10.8190    5.2750   -0.4930 c3        1 MOL     -0.023177
    148 N13       -11.8710    5.5570    0.4910 n4        1 MOL     -0.177700
    149 H67        -6.6130   -0.1800   -0.5750 hn        1 MOL      0.200812
    150 H68        -6.8610    2.2350   -2.2270 h1        1 MOL      0.080724
    151 H69        -8.7270    1.6700    0.2590 hc        1 MOL      0.100857
    152 H70        -9.1210    1.4170   -1.4240 hc        1 MOL      0.100857
    153 H71        -8.7960    3.9330   -1.7950 hc        1 MOL     -0.007660
    154 H72        -8.3230    4.1040   -0.1090 hc        1 MOL     -0.007660
    155 H73       -10.5410    3.5470    0.6700 hc        1 MOL     -0.048309
    156 H74       -11.0350    3.1630   -0.9510 hc        1 MOL     -0.048309
    157 H75       -11.2030    5.4990   -1.4870 hx        1 MOL      0.079153
    158 H76        -9.9880    5.9010   -0.1670 hx        1 MOL      0.079153
    159 H77       -12.7190    5.0220    0.3670 hn        1 MOL      0.233072
    160 H78       -11.5440    5.5420    1.4540 hn        1 MOL      0.233072
    161 H79       -12.1700    6.5150    0.3930 hn        1 MOL      0.233072
    162 N14        -5.3120    3.4240   -0.5350 n         1 MOL     -0.695247
    163 C49        -4.3620    4.1030    0.3540 c3        1 MOL      0.804638
    164 C50        -3.0850    3.2200    0.6300 c         1 MOL      0.141847
    165 O22        -2.7440    2.9280    1.7890 o         1 MOL     -0.584666
    166 C51        -3.9740    5.4770   -0.0630 c3        1 MOL     -0.143230
    167 C52        -5.2380    6.2980   -0.0550 c3        1 MOL     -0.263520
    168 C53        -4.9440    7.7390   -0.5440 c         1 MOL      0.708629
    169 O23        -4.0250    8.4040   -0.0000 o         1 MOL     -0.669269
    170 O24        -5.6380    8.2730   -1.4160 o         1 MOL     -0.669269
    171 H80        -5.3550    3.7360   -1.4940 hn        1 MOL      0.324630
    172 H81        -4.8960    4.2630    1.3030 h1        1 MOL     -0.071324
    173 H82        -3.5360    5.4380   -1.0600 hc        1 MOL      0.053400
    174 H83        -3.2560    5.7940    0.6890 hc        1 MOL      0.053400
    175 H84        -5.6660    6.3690    0.9470 hc        1 MOL      0.030454
    176 H85        -6.0080    5.8890   -0.7080 hc        1 MOL      0.030454
    177 N15        -2.3700    2.7280   -0.4050 n         1 MOL     -0.243666
    178 C54        -2.5340    2.9370   -1.8820 c3        1 MOL     -0.135045
    179 H86        -1.5560    2.9120   -2.3630 h1        1 MOL      0.075653
    180 H87        -3.1620    2.1460   -2.2930 h1        1 MOL      0.075653
    181 H88        -3.0030    3.9040   -2.0630 h1        1 MOL      0.075653
    182 H89        -1.4950    2.3440   -0.0770 hn        1 MOL      0.301478
    183 Ca1        -0.9180    1.6120    3.1130 Ca        1 MOL      1.758114
    184 O25        -3.1760    0.7640    4.2110 oh        1 MOL     -0.814329
    185 H90        -3.9700    1.3160    4.2380 ho        1 MOL      0.405721
    186 H91        -3.4880   -0.0910    3.9410 ho        1 MOL      0.405721
    187 O26        -2.0370    3.7840    4.4280 oh        1 MOL     -0.814329
    188 H92        -2.2650    4.5010    3.8400 ho        1 MOL      0.405721
    189 H93        -1.6120    4.1970    5.1760 ho        1 MOL      0.405721
    190 O27         0.4670    3.8970    2.3880 oh        1 MOL     -0.814329
    191 H94         1.2880    4.0270    1.9080 ho        1 MOL      0.405721
    192 H95         0.4040    4.6680    2.9480 ho        1 MOL      0.405721
    193 O28         0.8800    2.2610    5.1420 oh        1 MOL     -0.814329
    194 H96         0.6690    2.5670    6.0250 ho        1 MOL      0.405721
    195 H97         1.8360    2.2660    5.1070 ho        1 MOL      0.405721
    196 O29        -0.0340   -0.5720    4.5540 oh        1 MOL     -0.814329
    197 H98        -0.3740   -1.4320    4.7900 ho        1 MOL      0.405721
    198 H99         0.8240   -0.5320    4.9710 ho        1 MOL      0.405721
    199 O30        -1.4630   -0.6770    1.4740 oh        1 MOL     -0.814329
    200 H100       -1.1140   -0.4060    0.6250 ho        1 MOL      0.405721
    201 H101       -1.5200   -1.6310    1.4230 ho        1 MOL      0.405721
@<TRIPOS>BOND
     1    1    2 1   
     2    1    4 1   
     3    1    5 1   
     4    1    6 1   
     5    2    3 2   
     6    2    7 1   
     7    7    8 1   
     8    7   15 1   
     9    8    9 1   
    10    8   11 1   
    11    8   16 1   
    12    9   10 2   
    13    9   19 1   
    14   11   12 1   
    15   11   17 1   
    16   11   18 1   
    17   12   13 1   
    18   12   14 1   
    19   19   20 1   
    20   19   28 1   
    21   20   21 1   
    22   20   23 1   
    23   20   29 1   
    24   21   22 2   
    25   21   41 1   
    26   23   24 1   
    27   23   30 1   
    28   23   31 1   
    29   24   25 1   
    30   24   32 1   
    31   24   33 1   
    32   25   26 1   
    33   25   34 1   
    34   25   35 1   
    35   26   27 1   
    36   26   36 1   
    37   26   37 1   
    38   27   38 1   
    39   27   39 1   
    40   27   40 1   
    41   41   42 1   
    42   41   49 1   
    43   42   43 1   
    44   42   45 1   
    45   42   50 1   
    46   43   44 2   
    47   43   53 1   
    48   45   46 1   
    49   45   51 1   
    50   45   52 1   
    51   46   47 1   
    52   46   48 1   
    53   53   54 1   
    54   53   57 1   
    55   54   55 1   
    56   54   58 1   
    57   54   59 1   
    58   55   56 2   
    59   55   60 1   
    60   60   61 1   
    61   60   68 1   
    62   61   62 1   
    63   61   64 1   
    64   61   69 1   
    65   62   63 2   
    66   62   72 1   
    67   64   65 1   
    68   64   70 1   
    69   64   71 1   
    70   65   66 1   
    71   65   67 1   
    72   72   73 1   
    73   72   76 1   
    74   73   74 1   
    75   73   77 1   
    76   73   78 1   
    77   74   75 2   
    78   74   79 1   
    79   79   80 1   
    80   79   86 1   
    81   80   81 1   
    82   80   83 1   
    83   80   87 1   
    84   81   82 2   
    85   81   93 1   
    86   83   84 1   
    87   83   85 1   
    88   83   88 1   
    89   84   90 1   
    90   84   91 1   
    91   84   92 1   
    92   85   89 1   
    93   93   94 1   
    94   93  101 1   
    95   94   95 1   
    96   94   97 1   
    97   94  102 1   
    98   95   96 2   
    99   95  112 1   
   100   97   98 1   
   101   97   99 1   
   102   97  103 1   
   103   98  100 1   
   104   98  104 1   
   105   98  105 1   
   106   99  106 1   
   107   99  107 1   
   108   99  108 1   
   109  100  109 1   
   110  100  110 1   
   111  100  111 1   
   112  112  113 1   
   113  112  119 1   
   114  113  114 1   
   115  113  116 1   
   116  113  120 1   
   117  114  115 2   
   118  114  126 1   
   119  116  117 1   
   120  116  118 1   
   121  116  121 1   
   122  117  123 1   
   123  117  124 1   
   124  117  125 1   
   125  118  122 1   
   126  126  127 1   
   127  126  133 1   
   128  127  128 1   
   129  127  130 1   
   130  127  134 1   
   131  128  129 2   
   132  128  140 1   
   133  130  131 1   
   134  130  132 1   
   135  130  135 1   
   136  131  137 1   
   137  131  138 1   
   138  131  139 1   
   139  132  136 1   
   140  140  141 1   
   141  140  149 1   
   142  141  142 1   
   143  141  144 1   
   144  141  150 1   
   145  142  143 2   
   146  142  162 1   
   147  144  145 1   
   148  144  151 1   
   149  144  152 1   
   150  145  146 1   
   151  145  153 1   
   152  145  154 1   
   153  146  147 1   
   154  146  155 1   
   155  146  156 1   
   156  147  148 1   
   157  147  157 1   
   158  147  158 1   
   159  148  159 1   
   160  148  160 1   
   161  148  161 1   
   162  162  163 1   
   163  162  171 1   
   164  163  164 1   
   165  163  166 1   
   166  163  172 1   
   167  164  165 2   
   168  164  177 1   
   169  166  167 1   
   170  166  173 1   
   171  166  174 1   
   172  167  168 1   
   173  167  175 1   
   174  167  176 1   
   175  168  169 1   
   176  168  170 1   
   177  177  178 1   
   178  177  182 1   
   179  178  179 1   
   180  178  180 1   
   181  178  181 1   
   182  184  185 1   
   183  184  186 1   
   184  187  188 1   
   185  187  189 1   
   186  190  191 1   
   187  190  192 1   
   188  193  194 1   
   189  193  195 1   
   190  196  197 1   
   191  196  198 1   
   192  199  200 1   
   193  199  201 1   
@<TRIPOS>SUBSTRUCTURE
     1 MOL         1 TEMP              0 ****  ****    0 ROOT
