@<TRIPOS>MOLECULE
MOL
  192   187     1     0     0
SMALL
resp


@<TRIPOS>ATOM
      1 C1         -6.7600   -3.0160    4.6530 c3        1 MOL     -0.230231
      2 C2         -5.8820   -2.4010    3.5150 c         1 MOL      0.719915
      3 O1         -5.4430   -3.0420    2.6020 o         1 MOL     -0.588860
      4 H1         -6.4270   -4.0320    4.8610 hc        1 MOL      0.059199
      5 H2         -6.6620   -2.4100    5.5550 hc        1 MOL      0.059199
      6 H3         -7.8040   -3.0330    4.3390 hc        1 MOL      0.059199
      7 N1         -5.6450   -1.1180    3.4610 n         1 MOL     -0.609213
      8 C3         -4.9540   -0.2590    2.4050 c3        1 MOL      0.665684
      9 C4         -3.4160   -0.3480    2.2770 c         1 MOL     -0.007105
     10 O2         -2.8570    0.5330    1.6460 o         1 MOL     -0.163746
     11 C5         -5.2710    1.2390    2.5150 c3        1 MOL     -0.468824
     12 C6         -6.6970    1.5520    2.7100 c         1 MOL      0.780376
     13 O3         -7.4040    1.8110    1.6870 o         1 MOL     -0.707292
     14 O4         -7.2480    1.5350    3.7910 o         1 MOL     -0.707292
     15 H4         -6.1370   -0.6130    4.1910 hn        1 MOL      0.253622
     16 H5         -5.2960   -0.4680    1.3820 h1        1 MOL     -0.056478
     17 H6         -5.0960    1.6580    1.5150 hc        1 MOL      0.056489
     18 H7         -4.6000    1.7250    3.2180 hc        1 MOL      0.056489
     19 N2         -2.8280   -1.4180    2.8880 n         1 MOL     -0.124558
     20 C7         -1.4190   -1.5160    2.9850 c3        1 MOL      0.344023
     21 C8         -0.8840   -2.6110    2.0730 c         1 MOL      0.206937
     22 O5         -1.2730   -3.7690    2.2320 o         1 MOL     -0.504224
     23 C9         -1.0250   -1.8860    4.4630 c3        1 MOL     -0.352430
     24 C10        -1.2110   -0.7100    5.4500 c3        1 MOL      0.066049
     25 C11        -0.2810    0.4260    5.0510 c3        1 MOL      0.229054
     26 C12         0.1360    1.3890    6.1510 c3        1 MOL     -0.070884
     27 N3         -0.9800    1.9860    6.9750 n4        1 MOL     -0.286367
     28 H8         -3.4160   -1.9780    3.4980 hn        1 MOL      0.168309
     29 H9         -0.9730   -0.5600    2.7330 h1        1 MOL     -0.095851
     30 H10         0.0390   -2.1170    4.5260 hc        1 MOL      0.127893
     31 H11        -1.6240   -2.7700    4.6690 hc        1 MOL      0.127893
     32 H12        -0.9170   -1.0460    6.4480 hc        1 MOL     -0.037785
     33 H13        -2.2540   -0.3800    5.4210 hc        1 MOL     -0.037785
     34 H14        -0.8590    0.9530    4.2880 hc        1 MOL     -0.018795
     35 H15         0.5620    0.0700    4.4640 hc        1 MOL     -0.018795
     36 H16         0.6900    2.2200    5.7090 hx        1 MOL      0.096718
     37 H17         0.9270    0.8770    6.7030 hx        1 MOL      0.096718
     38 H18        -1.6030    2.6180    6.4790 hn        1 MOL      0.306436
     39 H19        -1.5800    1.2940    7.3880 hn        1 MOL      0.306436
     40 H20        -0.5560    2.4510    7.7690 hn        1 MOL      0.306436
     41 N4          0.0310   -2.4450    1.1340 n         1 MOL     -0.034988
     42 C13         0.7550   -1.2990    0.6430 c3        1 MOL     -0.221594
     43 C14         1.4230   -0.4900    1.7500 c         1 MOL      0.621420
     44 O6          1.0490    0.5780    2.1940 o         1 MOL     -0.569140
     45 C15        -0.1920   -0.5470   -0.3370 c3        1 MOL     -0.483369
     46 C16        -0.4220   -1.2150   -1.6700 c         1 MOL      0.745067
     47 O7          0.0040   -2.3400   -1.8690 o         1 MOL     -0.711100
     48 O8         -0.9300   -0.5570   -2.5760 o         1 MOL     -0.711100
     49 H21         0.3020   -3.2430    0.5750 hn        1 MOL      0.103135
     50 H22         1.5760   -1.6450    0.0200 h1        1 MOL      0.067503
     51 H23         0.1740    0.4430   -0.5960 hc        1 MOL      0.255923
     52 H24        -1.1810   -0.4150    0.1060 hc        1 MOL      0.255923
     53 N5          2.5800   -0.9540    2.2480 n         1 MOL     -0.435819
     54 C17         3.4710   -2.0100    1.6860 c3        1 MOL     -0.198840
     55 C18         4.6530   -2.3620    2.6210 c         1 MOL      0.616249
     56 O9          4.9000   -1.7090    3.6420 o         1 MOL     -0.536268
     57 H25         2.9510   -0.4310    3.0230 hn        1 MOL      0.301386
     58 H26         3.8770   -1.6580    0.7400 h1        1 MOL      0.155212
     59 H27         2.9330   -2.9320    1.4940 h1        1 MOL      0.155212
     60 N6          5.4230   -3.4410    2.3750 n         1 MOL     -0.605364
     61 C19         5.4160   -4.1570    1.1040 c3        1 MOL      0.309209
     62 C20         6.2870   -3.4440   -0.0160 c         1 MOL      0.341640
     63 O10         7.2270   -2.7200    0.2880 o         1 MOL     -0.411903
     64 C21         5.9700   -5.5340    1.3320 c3        1 MOL     -0.155365
     65 C22         7.1300   -5.6690    2.3270 c         1 MOL      0.709671
     66 O11         7.3560   -6.8180    2.7920 o         1 MOL     -0.630813
     67 O12         7.8760   -4.7010    2.7050 o         1 MOL     -0.630813
     68 H28         6.0380   -3.6840    3.1370 hn        1 MOL      0.356451
     69 H29         4.4060   -4.1780    0.6970 h1        1 MOL     -0.058800
     70 H30         6.3530   -6.0800    0.4730 hc        1 MOL      0.009181
     71 H31         5.1320   -6.1480    1.6420 hc        1 MOL      0.009181
     72 N7          5.8990   -3.5720   -1.3180 n         1 MOL     -0.199540
     73 C23         6.6510   -2.9880   -2.4150 c3        1 MOL     -0.231554
     74 C24         6.4420   -1.4910   -2.5670 c         1 MOL      0.498542
     75 O13         7.3260   -0.8040   -3.0920 o         1 MOL     -0.541121
     76 H32         5.1120   -4.1840   -1.4250 hn        1 MOL      0.118084
     77 H33         6.4330   -3.5540   -3.3260 h1        1 MOL      0.137712
     78 H34         7.7280   -3.1010   -2.2690 h1        1 MOL      0.137712
     79 N8          5.3000   -0.9010   -2.0540 n         1 MOL     -0.205264
     80 C25         4.8780    0.4890   -2.1470 c3        1 MOL      0.000368
     81 C26         5.2190    1.1960   -0.8540 c         1 MOL      0.318001
     82 O14         4.9230    0.6840    0.2540 o         1 MOL     -0.460569
     83 C27         3.3780    0.6800   -2.4530 c3        1 MOL      0.346552
     84 C28         3.0140    0.1160   -3.8530 c3        1 MOL     -0.088830
     85 O15         3.0610    2.0890   -2.3830 oh        1 MOL     -0.569255
     86 H35         4.6700   -1.4710   -1.5010 hn        1 MOL      0.076339
     87 H36         5.3820    0.9640   -2.9950 h1        1 MOL      0.081468
     88 H37         2.8370    0.0380   -1.7480 h1        1 MOL      0.076081
     89 H38         2.2550    2.1100   -1.8530 ho        1 MOL      0.277628
     90 H39         3.4230   -0.8870   -3.8980 hc        1 MOL     -0.002819
     91 H40         1.9260    0.0640   -3.9290 hc        1 MOL     -0.002819
     92 H41         3.4440    0.7240   -4.6460 hc        1 MOL     -0.002819
     93 N9          5.8560    2.3500   -0.9770 n         1 MOL     -0.150104
     94 C29         6.1250    3.2940    0.0860 c3        1 MOL     -0.354100
     95 C30         4.9500    4.1730    0.3710 c         1 MOL      0.582348
     96 O16         5.0560    4.9290    1.3330 o         1 MOL     -0.533588
     97 C31         7.3690    4.0960   -0.2080 c3        1 MOL      0.312830
     98 C32         7.1950    5.1540   -1.2430 c3        1 MOL      0.090203
     99 C33         8.6670    3.2860   -0.5040 c3        1 MOL     -0.294226
    100 C34         8.3330    6.2290   -1.2980 c3        1 MOL     -0.060362
    101 H42         6.1110    2.5320   -1.9380 hn        1 MOL      0.216909
    102 H43         6.3500    2.6390    0.9340 h1        1 MOL      0.182845
    103 H44         7.4390    4.6500    0.7240 hc        1 MOL     -0.017225
    104 H45         6.2810    5.7470   -1.1120 hc        1 MOL     -0.042068
    105 H46         7.1110    4.5890   -2.1750 hc        1 MOL     -0.042068
    106 H47         8.8060    2.4520    0.1810 hc        1 MOL      0.074763
    107 H48         8.6390    2.9400   -1.5390 hc        1 MOL      0.074763
    108 H49         9.5430    3.9240   -0.4020 hc        1 MOL      0.074763
    109 H50         8.1130    7.0950   -1.9310 hc        1 MOL      0.006345
    110 H51         8.5280    6.5060   -0.2580 hc        1 MOL      0.006345
    111 H52         9.2380    5.7780   -1.6910 hc        1 MOL      0.006345
    112 N10         3.7880    4.1240   -0.3350 n         1 MOL     -0.378761
    113 C35         2.5270    4.8050   -0.0160 c3        1 MOL      0.207085
    114 C36         1.3000    3.7960   -0.0160 c         1 MOL      0.328760
    115 O17         1.2840    2.7420   -0.6940 o         1 MOL     -0.331282
    116 C37         2.1670    6.0710   -0.8300 c3        1 MOL      0.210042
    117 C38         1.9520    5.8140   -2.3430 c3        1 MOL     -0.195901
    118 O18         3.0960    7.1800   -0.6220 oh        1 MOL     -0.597852
    119 H53         3.7180    3.5550   -1.1680 hn        1 MOL      0.159682
    120 H54         2.6180    5.1460    1.0120 h1        1 MOL      0.055522
    121 H55         1.2130    6.4190   -0.4410 h1        1 MOL      0.000342
    122 H56         3.0130    7.7210   -1.4110 ho        1 MOL      0.386617
    123 H57         1.6440    6.6340   -2.9860 hc        1 MOL      0.064173
    124 H58         2.9000    5.4670   -2.7670 hc        1 MOL      0.064173
    125 H59         1.1370    5.1110   -2.4760 hc        1 MOL      0.064173
    126 N11         0.2170    4.0210    0.6860 n         1 MOL     -0.353595
    127 C39        -1.0690    3.2530    0.5990 c3        1 MOL     -0.047389
    128 C40        -1.7650    3.1640   -0.7100 c         1 MOL      0.416756
    129 O19        -1.6380    4.1590   -1.4500 o         1 MOL     -0.534292
    130 C41        -2.1370    3.7590    1.5180 c3        1 MOL      0.453592
    131 C42        -2.5060    5.2240    1.1740 c3        1 MOL     -0.393564
    132 O20        -1.8030    3.5520    2.8400 oh        1 MOL     -0.623963
    133 H60         0.3000    4.7150    1.4190 hn        1 MOL      0.243391
    134 H61        -0.7890    2.2530    0.9500 h1        1 MOL      0.075979
    135 H62        -3.0470    3.2050    1.2930 h1        1 MOL      0.132054
    136 H63        -0.8880    3.8310    2.9540 ho        1 MOL      0.372237
    137 H64        -2.8610    5.3270    0.1440 hc        1 MOL      0.082628
    138 H65        -3.3180    5.4380    1.8610 hc        1 MOL      0.082628
    139 H66        -1.6510    5.8650    1.4100 hc        1 MOL      0.082628
    140 N12        -2.5920    2.1300   -0.8650 n         1 MOL      0.048179
    141 C43        -3.5270    1.9950   -1.9770 c3        1 MOL     -0.066000
    142 C44        -4.0800    0.5870   -2.2970 c         1 MOL      0.531148
    143 O21        -4.6380    0.4350   -3.3460 o         1 MOL     -0.600850
    144 C45        -4.8030    2.7780   -1.4910 c3        1 MOL     -0.045492
    145 C46        -5.8750    2.9910   -2.5320 c3        1 MOL     -0.103498
    146 C47        -6.8370    4.0590   -2.0960 c3        1 MOL     -0.041267
    147 C48        -8.0780    4.3350   -2.9990 c3        1 MOL     -0.064961
    148 N13        -8.9430    5.4210   -2.3920 n4        1 MOL     -0.297278
    149 H67        -2.6800    1.4960   -0.0870 hn        1 MOL     -0.503400
    150 H68        -3.2270    2.5480   -2.8640 h1        1 MOL      0.103734
    151 H69        -4.5840    3.7920   -1.1690 hc        1 MOL      0.052244
    152 H70        -5.3080    2.3330   -0.6420 hc        1 MOL      0.052244
    153 H71        -6.5090    2.1350   -2.7560 hc        1 MOL      0.061128
    154 H72        -5.4760    3.3430   -3.4840 hc        1 MOL      0.061128
    155 H73        -6.3220    4.9990   -1.9100 hc        1 MOL      0.050883
    156 H74        -7.3690    3.7800   -1.1820 hc        1 MOL      0.050883
    157 H75        -8.6070    3.3740   -2.9730 hx        1 MOL      0.116135
    158 H76        -7.6830    4.5470   -3.9870 hx        1 MOL      0.116135
    159 H77        -8.3470    6.2180   -2.2410 hn        1 MOL      0.311383
    160 H78        -9.6780    5.7490   -3.0090 hn        1 MOL      0.311383
    161 H79        -9.3550    5.1620   -1.5130 hn        1 MOL      0.311383
    162 N14        -3.9890   -0.3900   -1.4210 n         1 MOL      0.305700
    163 C49        -4.5120   -1.7320   -1.6180 c3        1 MOL     -0.800730
    164 C50        -6.0730   -1.7960   -1.7170 c         1 MOL      0.654221
    165 O22        -6.7940   -1.0530   -1.0470 o         1 MOL     -0.516325
    166 C51        -3.8780   -2.5710   -0.5220 c3        1 MOL      1.248779
    167 C52        -4.1680   -4.1100   -0.6500 c3        1 MOL     -1.333156
    168 C53        -3.7960   -4.6640   -2.0190 c         1 MOL      1.366370
    169 O23        -4.7170   -4.8100   -2.8770 o         1 MOL     -0.896160
    170 O24        -2.7320   -5.2700   -2.2990 o         1 MOL     -0.896160
    171 H80        -3.5710   -0.1510   -0.5320 hn        1 MOL      0.094738
    172 H81        -4.2070   -2.0570   -2.6160 h1        1 MOL      0.153086
    173 H82        -4.1950   -2.1650    0.4440 hc        1 MOL     -0.274866
    174 H83        -2.8140   -2.3820   -0.6110 hc        1 MOL     -0.274866
    175 H84        -5.2170   -4.3330   -0.4360 hc        1 MOL      0.299084
    176 H85        -3.5700   -4.6240    0.0930 hc        1 MOL      0.299084
    177 N15        -6.5750   -2.6640   -2.5930 n         1 MOL     -0.561016
    178 C54        -8.0420   -2.9640   -2.8640 c3        1 MOL     -0.013947
    179 H86        -8.2440   -4.0120   -2.6450 h1        1 MOL      0.056085
    180 H87        -8.6660   -2.3330   -2.2310 h1        1 MOL      0.056085
    181 H88        -8.2670   -2.7620   -3.9120 h1        1 MOL      0.056085
    182 H89        -5.9430   -3.2590   -3.1070 hn        1 MOL      0.502833
    183 Ca1        -0.3770   -4.7170   -3.1540 Ca        1 MOL      1.505307
    184 O25        -2.0300   -2.5980   -3.7330 oh        1 MOL     -0.830485
    185 H90        -1.6280   -1.8900   -3.2330 ho        1 MOL      0.409643
    186 H91        -1.9890   -2.3030   -4.6400 ho        1 MOL      0.409643
    187 O26        -1.7040   -5.3550   -5.2740 oh        1 MOL     -0.830485
    188 H92        -1.3650   -6.2530   -5.3070 ho        1 MOL      0.409643
    189 H93        -2.3060   -5.3030   -6.0160 ho        1 MOL      0.409643
    190 O27         0.8270   -3.1190   -5.1170 oh        1 MOL     -0.830485
    191 H94         1.7530   -3.1640   -5.3570 ho        1 MOL      0.409643
    192 H95         0.5620   -2.2340   -5.3530 ho        1 MOL      0.409643
@<TRIPOS>BOND
     1    1    2 1   
     2    1    4 1   
     3    1    5 1   
     4    1    6 1   
     5    2    3 2   
     6    2    7 1   
     7    7    8 1   
     8    7   15 1   
     9    8    9 1   
    10    8   11 1   
    11    8   16 1   
    12    9   10 2   
    13    9   19 1   
    14   11   12 1   
    15   11   17 1   
    16   11   18 1   
    17   12   13 1   
    18   12   14 1   
    19   19   20 1   
    20   19   28 1   
    21   20   21 1   
    22   20   23 1   
    23   20   29 1   
    24   21   22 2   
    25   21   41 1   
    26   23   24 1   
    27   23   30 1   
    28   23   31 1   
    29   24   25 1   
    30   24   32 1   
    31   24   33 1   
    32   25   26 1   
    33   25   34 1   
    34   25   35 1   
    35   26   27 1   
    36   26   36 1   
    37   26   37 1   
    38   27   38 1   
    39   27   39 1   
    40   27   40 1   
    41   41   42 1   
    42   41   49 1   
    43   42   43 1   
    44   42   45 1   
    45   42   50 1   
    46   43   44 2   
    47   43   53 1   
    48   45   46 1   
    49   45   51 1   
    50   45   52 1   
    51   46   47 1   
    52   46   48 1   
    53   53   54 1   
    54   53   57 1   
    55   54   55 1   
    56   54   58 1   
    57   54   59 1   
    58   55   56 2   
    59   55   60 1   
    60   60   61 1   
    61   60   68 1   
    62   61   62 1   
    63   61   64 1   
    64   61   69 1   
    65   62   63 2   
    66   62   72 1   
    67   64   65 1   
    68   64   70 1   
    69   64   71 1   
    70   65   66 1   
    71   65   67 1   
    72   72   73 1   
    73   72   76 1   
    74   73   74 1   
    75   73   77 1   
    76   73   78 1   
    77   74   75 2   
    78   74   79 1   
    79   79   80 1   
    80   79   86 1   
    81   80   81 1   
    82   80   83 1   
    83   80   87 1   
    84   81   82 2   
    85   81   93 1   
    86   83   84 1   
    87   83   85 1   
    88   83   88 1   
    89   84   90 1   
    90   84   91 1   
    91   84   92 1   
    92   85   89 1   
    93   93   94 1   
    94   93  101 1   
    95   94   95 1   
    96   94   97 1   
    97   94  102 1   
    98   95   96 2   
    99   95  112 1   
   100   97   98 1   
   101   97   99 1   
   102   97  103 1   
   103   98  100 1   
   104   98  104 1   
   105   98  105 1   
   106   99  106 1   
   107   99  107 1   
   108   99  108 1   
   109  100  109 1   
   110  100  110 1   
   111  100  111 1   
   112  112  113 1   
   113  112  119 1   
   114  113  114 1   
   115  113  116 1   
   116  113  120 1   
   117  114  115 2   
   118  114  126 1   
   119  116  117 1   
   120  116  118 1   
   121  116  121 1   
   122  117  123 1   
   123  117  124 1   
   124  117  125 1   
   125  118  122 1   
   126  126  127 1   
   127  126  133 1   
   128  127  128 1   
   129  127  130 1   
   130  127  134 1   
   131  128  129 2   
   132  128  140 1   
   133  130  131 1   
   134  130  132 1   
   135  130  135 1   
   136  131  137 1   
   137  131  138 1   
   138  131  139 1   
   139  132  136 1   
   140  140  141 1   
   141  140  149 1   
   142  141  142 1   
   143  141  144 1   
   144  141  150 1   
   145  142  143 2   
   146  142  162 1   
   147  144  145 1   
   148  144  151 1   
   149  144  152 1   
   150  145  146 1   
   151  145  153 1   
   152  145  154 1   
   153  146  147 1   
   154  146  155 1   
   155  146  156 1   
   156  147  148 1   
   157  147  157 1   
   158  147  158 1   
   159  148  159 1   
   160  148  160 1   
   161  148  161 1   
   162  162  163 1   
   163  162  171 1   
   164  163  164 1   
   165  163  166 1   
   166  163  172 1   
   167  164  165 2   
   168  164  177 1   
   169  166  167 1   
   170  166  173 1   
   171  166  174 1   
   172  167  168 1   
   173  167  175 1   
   174  167  176 1   
   175  168  169 1   
   176  168  170 1   
   177  177  178 1   
   178  177  182 1   
   179  178  179 1   
   180  178  180 1   
   181  178  181 1   
   182  184  185 1   
   183  184  186 1   
   184  187  188 1   
   185  187  189 1   
   186  190  191 1   
   187  190  192 1   
@<TRIPOS>SUBSTRUCTURE
     1 MOL         1 TEMP              0 ****  ****    0 ROOT
