@<TRIPOS>MOLECULE
MOL
  192   187     1     0     0
SMALL
resp


@<TRIPOS>ATOM
      1 C1         10.2100    1.1020    1.0830 c3        1 MOL     -0.506075
      2 C2          8.8370    0.6040    0.4930 c         1 MOL      0.745077
      3 O1          7.9310    0.4510    1.3240 o         1 MOL     -0.641023
      4 H1         11.0100    0.4420    0.7460 hc        1 MOL      0.126600
      5 H2         10.4080    2.1160    0.7370 hc        1 MOL      0.126600
      6 H3         10.1650    1.0910    2.1710 hc        1 MOL      0.126600
      7 N1          8.7690    0.2610   -0.8080 n         1 MOL     -0.570447
      8 C3          7.4880    0.1760   -1.5490 c3        1 MOL      0.129904
      9 C4          6.8430   -1.2130   -1.3990 c         1 MOL      0.570396
     10 O2          6.3960   -1.8160   -2.3650 o         1 MOL     -0.487295
     11 C5          7.5870    0.7510   -2.9790 c3        1 MOL     -0.152749
     12 C6          8.6600    0.0990   -3.8930 c         1 MOL      0.682389
     13 O3          8.7640    0.5550   -5.0720 o         1 MOL     -0.653969
     14 O4          9.2890   -0.8620   -3.4170 o         1 MOL     -0.653969
     15 H4          9.5710    0.0920   -1.4060 hn        1 MOL      0.285139
     16 H5          6.8020    0.8670   -1.0550 h1        1 MOL      0.000252
     17 H6          7.9360    1.7850   -2.9220 hc        1 MOL      0.046839
     18 H7          6.6200    0.7890   -3.4730 hc        1 MOL      0.046839
     19 N2          6.9200   -1.7460   -0.2190 n         1 MOL     -0.589991
     20 C7          6.5530   -3.1090    0.0590 c3        1 MOL      0.279739
     21 C8          5.0200   -3.3930    0.0030 c         1 MOL      0.441518
     22 O5          4.7080   -4.4850   -0.4200 o         1 MOL     -0.545205
     23 C9          7.0600   -3.5180    1.4620 c3        1 MOL     -0.231409
     24 C10         8.5700   -3.4360    1.7500 c3        1 MOL      0.141857
     25 C11         8.8500   -3.9550    3.1210 c3        1 MOL     -0.121681
     26 C12        10.3070   -3.5630    3.3910 c3        1 MOL      0.167631
     27 N3         10.7380   -3.9230    4.7540 n4        1 MOL     -0.226188
     28 H8          7.4600   -1.1980    0.4400 hn        1 MOL      0.329854
     29 H9          6.9670   -3.7600   -0.7140 h1        1 MOL      0.061653
     30 H10         6.7760   -4.5690    1.4710 hc        1 MOL      0.053314
     31 H11         6.5370   -2.9570    2.2480 hc        1 MOL      0.053314
     32 H12         8.9150   -2.4170    1.6240 hc        1 MOL     -0.000632
     33 H13         9.0750   -4.0400    0.9930 hc        1 MOL     -0.000632
     34 H14         8.8720   -5.0480    3.0780 hc        1 MOL      0.053922
     35 H15         8.2100   -3.5080    3.8850 hc        1 MOL      0.053922
     36 H16        10.4230   -2.4900    3.2270 hx        1 MOL      0.029045
     37 H17        10.9580   -4.0530    2.6640 hx        1 MOL      0.029045
     38 H18        11.2620   -3.1950    5.2230 hn        1 MOL      0.245584
     39 H19         9.9750   -4.1320    5.3730 hn        1 MOL      0.245584
     40 H20        11.3400   -4.7320    4.7860 hn        1 MOL      0.245584
     41 N4          4.0270   -2.5660    0.2970 n         1 MOL     -0.436399
     42 C13         4.0170   -1.1910    0.8770 c3        1 MOL      0.202606
     43 C14         3.9250   -0.0830   -0.2020 c         1 MOL      0.092965
     44 O6          3.5420   -0.3030   -1.3610 o         1 MOL     -0.347194
     45 C15         2.8790   -1.0230    1.9590 c3        1 MOL     -0.308244
     46 C16         1.5190   -1.5860    1.4500 c         1 MOL      0.782063
     47 O7          0.9300   -0.9710    0.5900 o         1 MOL     -0.721682
     48 O8          1.2370   -2.8020    1.6770 o         1 MOL     -0.721682
     49 H21         3.1700   -2.9290   -0.0950 hn        1 MOL      0.386373
     50 H22         5.0010   -1.0630    1.3230 h1        1 MOL      0.066074
     51 H23         2.7260   -0.0080    2.3180 hc        1 MOL      0.048009
     52 H24         3.1850   -1.6180    2.8300 hc        1 MOL      0.048009
     53 N5          4.1700    1.1800    0.2130 n         1 MOL     -0.308516
     54 C17         4.0530    2.2730   -0.6960 c3        1 MOL      0.276612
     55 C18         2.6000    2.6410   -1.1100 c         1 MOL      0.330767
     56 O9          1.6450    2.0720   -0.6070 o         1 MOL     -0.375671
     57 H25         4.4040    1.4230    1.1620 hn        1 MOL      0.275508
     58 H26         4.5620    1.9410   -1.5960 h1        1 MOL     -0.022447
     59 H27         4.5640    3.1990   -0.4320 h1        1 MOL     -0.022447
     60 N6          2.5980    3.5540   -2.0230 n         1 MOL     -0.364996
     61 C19         1.3980    4.3540   -2.5130 c3        1 MOL      0.282432
     62 C20         1.6370    5.8790   -2.4820 c         1 MOL      0.441970
     63 O10         2.7980    6.2740   -2.4770 o         1 MOL     -0.524335
     64 C21         0.8320    3.7840   -3.7880 c3        1 MOL     -0.216304
     65 C22         0.4280    2.3370   -3.6080 c         1 MOL      0.618287
     66 O11         1.1130    1.5050   -4.3230 o         1 MOL     -0.645572
     67 O12        -0.3700    2.0010   -2.7040 o         1 MOL     -0.645572
     68 H28         3.4590    3.8840   -2.4300 hn        1 MOL      0.271210
     69 H29         0.6450    4.3180   -1.7300 h1        1 MOL      0.059539
     70 H30         1.6690    3.8230   -4.4770 hc        1 MOL      0.045582
     71 H31        -0.0020    4.4060   -4.1050 hc        1 MOL      0.045582
     72 N7          0.6320    6.7800   -2.5870 n         1 MOL     -0.474206
     73 C23        -0.8090    6.5430   -2.4150 c3        1 MOL     -0.002616
     74 C24        -1.2850    6.3290   -0.9730 c         1 MOL      0.602109
     75 O13        -0.6160    6.7720    0.0120 o         1 MOL     -0.550962
     76 H32         0.9020    7.7430   -2.4520 hn        1 MOL      0.335926
     77 H33        -1.1900    5.7480   -3.0470 h1        1 MOL      0.055544
     78 H34        -1.3920    7.3740   -2.8140 h1        1 MOL      0.055544
     79 N8         -2.2190    5.4130   -0.8130 n         1 MOL     -0.599527
     80 C25        -2.8560    4.9490    0.4550 c3        1 MOL     -0.014353
     81 C26        -1.9870    3.7890    0.9520 c         1 MOL      0.467733
     82 O14        -1.4340    3.0040    0.1100 o         1 MOL     -0.630374
     83 C27        -4.3770    4.6420    0.2930 c3        1 MOL      0.447323
     84 C28        -5.1080    4.4800    1.6050 c3        1 MOL     -0.402225
     85 O15        -4.6580    3.4790   -0.4090 oh        1 MOL     -0.656451
     86 H35        -2.4220    4.9530   -1.6970 hn        1 MOL      0.292239
     87 H36        -2.7970    5.6690    1.2620 h1        1 MOL      0.104579
     88 H37        -4.8360    5.4270   -0.2990 h1        1 MOL      0.009529
     89 H38        -4.3440    3.5440   -1.3060 ho        1 MOL      0.430186
     90 H39        -5.0670    5.4040    2.1790 hc        1 MOL      0.109037
     91 H40        -6.1050    4.1290    1.3420 hc        1 MOL      0.109037
     92 H41        -4.6220    3.6780    2.1770 hc        1 MOL      0.109037
     93 N9         -1.8890    3.6520    2.3400 n         1 MOL     -0.551062
     94 C29        -1.0210    2.6970    3.0290 c3        1 MOL     -0.042695
     95 C30        -1.3640    1.1990    2.7950 c         1 MOL      0.890873
     96 O16        -0.8570    0.6970    1.8650 o         1 MOL     -0.572624
     97 C31         0.4950    2.9590    2.7740 c3        1 MOL      0.377044
     98 C32         0.8430    4.4030    2.5070 c3        1 MOL     -0.027747
     99 C33         1.3690    2.3440    3.9050 c3        1 MOL     -0.474095
    100 C34         2.2610    4.8350    2.9160 c3        1 MOL     -0.180821
    101 H42        -2.1570    4.4690    2.8640 hn        1 MOL      0.342094
    102 H43        -1.1710    2.8700    4.0940 h1        1 MOL      0.013395
    103 H44         0.7000    2.4440    1.8340 hc        1 MOL     -0.130788
    104 H45         0.1190    5.0310    3.0290 hc        1 MOL      0.033270
    105 H46         0.7760    4.6600    1.4490 hc        1 MOL      0.033270
    106 H47         1.4010    3.0520    4.7270 hc        1 MOL      0.110118
    107 H48         1.0190    1.3610    4.2360 hc        1 MOL      0.110118
    108 H49         2.4150    2.2470    3.5960 hc        1 MOL      0.110118
    109 H50         2.2530    4.7990    4.0070 hc        1 MOL      0.045803
    110 H51         3.0030    4.2500    2.3640 hc        1 MOL      0.045803
    111 H52         2.3350    5.8910    2.6660 hc        1 MOL      0.045803
    112 N10        -2.1310    0.5870    3.6950 n         1 MOL     -0.738032
    113 C35        -2.5760   -0.8370    3.7740 c3        1 MOL     -0.088833
    114 C36        -3.7810   -1.0820    2.8710 c         1 MOL      0.325816
    115 O17        -3.9530   -2.2070    2.4190 o         1 MOL     -0.478133
    116 C37        -2.8680   -1.2630    5.2010 c3        1 MOL      0.571297
    117 C38        -4.0190   -0.5090    5.8680 c3        1 MOL     -0.250638
    118 O18        -1.6700   -1.1330    5.9510 oh        1 MOL     -0.677745
    119 H53        -2.6240    1.2600    4.2660 hn        1 MOL      0.318577
    120 H54        -1.7400   -1.4920    3.5470 h1        1 MOL      0.115372
    121 H55        -3.1440   -2.3220    5.1960 h1        1 MOL     -0.041781
    122 H56        -0.9140   -1.3970    5.4260 ho        1 MOL      0.416520
    123 H57        -4.8310   -0.4890    5.1390 hc        1 MOL      0.053780
    124 H58        -4.2400   -1.0670    6.7770 hc        1 MOL      0.053780
    125 H59        -3.7740    0.5100    6.1620 hc        1 MOL      0.053780
    126 N11        -4.5540   -0.0030    2.4640 n         1 MOL      0.167578
    127 C39        -5.9870   -0.0930    1.9880 c3        1 MOL     -0.522957
    128 C40        -6.1570   -0.7370    0.5510 c         1 MOL      0.564903
    129 O19        -5.8220   -0.0320   -0.4150 o         1 MOL     -0.494510
    130 C41        -6.7560    1.2150    2.0910 c3        1 MOL      0.396250
    131 C42        -8.2550    0.9880    1.7580 c3        1 MOL     -0.433593
    132 O20        -6.5480    1.7800    3.4460 oh        1 MOL     -0.628329
    133 H60        -4.2740    0.8880    2.8560 hn        1 MOL      0.124162
    134 H61        -6.4460   -0.8110    2.6810 h1        1 MOL      0.135016
    135 H62        -6.4830    1.9430    1.3200 h1        1 MOL      0.087970
    136 H63        -7.0950    1.2340    4.0180 ho        1 MOL      0.419631
    137 H64        -8.7490    1.9500    1.8530 hc        1 MOL      0.110219
    138 H65        -8.4630    0.5860    0.7650 hc        1 MOL      0.110219
    139 H66        -8.6700    0.3170    2.5150 hc        1 MOL      0.110219
    140 N12        -6.6200   -2.0100    0.4480 n         1 MOL     -0.355576
    141 C43        -6.6960   -2.8550   -0.7810 c3        1 MOL     -0.019328
    142 C44        -5.2560   -2.9000   -1.4390 c         1 MOL      0.601388
    143 O21        -5.0030   -2.3230   -2.5390 o         1 MOL     -0.556756
    144 C45        -7.7450   -2.2200   -1.7910 c3        1 MOL     -0.679685
    145 C46        -9.2050   -2.3780   -1.3960 c3        1 MOL      0.573661
    146 C47       -10.1700   -1.7900   -2.4590 c3        1 MOL     -0.173194
    147 C48       -11.6990   -2.0680   -2.2540 c3        1 MOL     -0.033652
    148 N13       -12.3220   -1.3840   -1.0790 n4        1 MOL     -0.120698
    149 H67        -6.7550   -2.4430    1.3490 hn        1 MOL      0.258284
    150 H68        -6.9810   -3.8440   -0.4340 h1        1 MOL      0.085242
    151 H69        -7.6550   -2.7490   -2.7420 hc        1 MOL      0.203891
    152 H70        -7.4840   -1.1750   -1.9780 hc        1 MOL      0.203891
    153 H71        -9.4120   -1.7980   -0.5010 hc        1 MOL     -0.113225
    154 H72        -9.4320   -3.4160   -1.1800 hc        1 MOL     -0.113225
    155 H73        -9.9170   -2.2730   -3.3980 hc        1 MOL      0.073411
    156 H74       -10.0120   -0.7090   -2.4880 hc        1 MOL      0.073411
    157 H75       -11.8120   -3.1430   -2.1460 hx        1 MOL      0.088826
    158 H76       -12.2170   -1.7920   -3.1720 hx        1 MOL      0.088826
    159 H77       -12.1070   -1.8440   -0.2000 hn        1 MOL      0.171333
    160 H78       -12.1590   -0.3910   -1.0330 hn        1 MOL      0.171333
    161 H79       -13.3280   -1.4090   -1.0900 hn        1 MOL      0.171333
    162 N14        -4.3060   -3.5110   -0.7300 n         1 MOL     -0.365448
    163 C49        -2.9520   -3.6310   -1.2610 c3        1 MOL      0.169484
    164 C50        -1.7580   -3.1310   -0.3380 c         1 MOL      0.228043
    165 O22        -1.2820   -2.0860   -0.7160 o         1 MOL     -0.432326
    166 C51        -2.7390   -5.0440   -1.7980 c3        1 MOL     -0.051294
    167 C52        -3.4410   -5.1970   -3.1960 c3        1 MOL     -0.337306
    168 C53        -3.3680   -6.6170   -3.6730 c         1 MOL      0.676387
    169 O23        -2.3370   -6.9930   -4.2360 o         1 MOL     -0.601868
    170 O24        -4.1420   -7.4860   -3.2330 o         1 MOL     -0.601868
    171 H80        -4.5950   -4.0300    0.0840 hn        1 MOL      0.247613
    172 H81        -2.9340   -2.9740   -2.1310 h1        1 MOL      0.112413
    173 H82        -3.1100   -5.8030   -1.1210 hc        1 MOL      0.083228
    174 H83        -1.6730   -5.2330   -1.8980 hc        1 MOL      0.083228
    175 H84        -2.9390   -4.5950   -3.9490 hc        1 MOL      0.081053
    176 H85        -4.4600   -4.8730   -3.0000 hc        1 MOL      0.081053
    177 N15        -1.2180   -3.7670    0.7120 n         1 MOL     -0.208751
    178 C54        -1.5660   -5.0900    1.3430 c3        1 MOL     -0.062276
    179 H86        -0.6800   -5.5080    1.8210 h1        1 MOL      0.038802
    180 H87        -2.3450   -4.9430    2.0910 h1        1 MOL      0.038802
    181 H88        -1.9230   -5.7770    0.5760 h1        1 MOL      0.038802
    182 H89        -0.4270   -3.2850    1.1340 hn        1 MOL      0.292795
    183 Ca1        -0.5630    0.4510   -0.7720 Ca        1 MOL      1.771072
    184 O25        -3.1470    0.7880   -0.2600 oh        1 MOL     -0.928726
    185 H90        -3.3560    1.7080   -0.1330 ho        1 MOL      0.433344
    186 H91        -3.9770    0.3760   -0.5220 ho        1 MOL      0.433344
    187 O26         1.1360   -0.4010   -2.5220 oh        1 MOL     -0.928726
    188 H92         1.1090   -0.0530   -3.4180 ho        1 MOL      0.433344
    189 H93         2.0740   -0.5290   -2.3520 ho        1 MOL      0.433344
    190 O27        -1.9670   -0.3570   -3.1500 oh        1 MOL     -0.928726
    191 H94        -1.6370   -0.0230   -3.9850 ho        1 MOL      0.433344
    192 H95        -2.9000   -0.5290   -3.3180 ho        1 MOL      0.433344
@<TRIPOS>BOND
     1    1    2 1   
     2    1    4 1   
     3    1    5 1   
     4    1    6 1   
     5    2    3 2   
     6    2    7 1   
     7    7    8 1   
     8    7   15 1   
     9    8    9 1   
    10    8   11 1   
    11    8   16 1   
    12    9   10 2   
    13    9   19 1   
    14   11   12 1   
    15   11   17 1   
    16   11   18 1   
    17   12   13 1   
    18   12   14 1   
    19   19   20 1   
    20   19   28 1   
    21   20   21 1   
    22   20   23 1   
    23   20   29 1   
    24   21   22 2   
    25   21   41 1   
    26   23   24 1   
    27   23   30 1   
    28   23   31 1   
    29   24   25 1   
    30   24   32 1   
    31   24   33 1   
    32   25   26 1   
    33   25   34 1   
    34   25   35 1   
    35   26   27 1   
    36   26   36 1   
    37   26   37 1   
    38   27   38 1   
    39   27   39 1   
    40   27   40 1   
    41   41   42 1   
    42   41   49 1   
    43   42   43 1   
    44   42   45 1   
    45   42   50 1   
    46   43   44 2   
    47   43   53 1   
    48   45   46 1   
    49   45   51 1   
    50   45   52 1   
    51   46   47 1   
    52   46   48 1   
    53   53   54 1   
    54   53   57 1   
    55   54   55 1   
    56   54   58 1   
    57   54   59 1   
    58   55   56 2   
    59   55   60 1   
    60   60   61 1   
    61   60   68 1   
    62   61   62 1   
    63   61   64 1   
    64   61   69 1   
    65   62   63 2   
    66   62   72 1   
    67   64   65 1   
    68   64   70 1   
    69   64   71 1   
    70   65   66 1   
    71   65   67 1   
    72   72   73 1   
    73   72   76 1   
    74   73   74 1   
    75   73   77 1   
    76   73   78 1   
    77   74   75 2   
    78   74   79 1   
    79   79   80 1   
    80   79   86 1   
    81   80   81 1   
    82   80   83 1   
    83   80   87 1   
    84   81   82 2   
    85   81   93 1   
    86   83   84 1   
    87   83   85 1   
    88   83   88 1   
    89   84   90 1   
    90   84   91 1   
    91   84   92 1   
    92   85   89 1   
    93   93   94 1   
    94   93  101 1   
    95   94   95 1   
    96   94   97 1   
    97   94  102 1   
    98   95   96 2   
    99   95  112 1   
   100   97   98 1   
   101   97   99 1   
   102   97  103 1   
   103   98  100 1   
   104   98  104 1   
   105   98  105 1   
   106   99  106 1   
   107   99  107 1   
   108   99  108 1   
   109  100  109 1   
   110  100  110 1   
   111  100  111 1   
   112  112  113 1   
   113  112  119 1   
   114  113  114 1   
   115  113  116 1   
   116  113  120 1   
   117  114  115 2   
   118  114  126 1   
   119  116  117 1   
   120  116  118 1   
   121  116  121 1   
   122  117  123 1   
   123  117  124 1   
   124  117  125 1   
   125  118  122 1   
   126  126  127 1   
   127  126  133 1   
   128  127  128 1   
   129  127  130 1   
   130  127  134 1   
   131  128  129 2   
   132  128  140 1   
   133  130  131 1   
   134  130  132 1   
   135  130  135 1   
   136  131  137 1   
   137  131  138 1   
   138  131  139 1   
   139  132  136 1   
   140  140  141 1   
   141  140  149 1   
   142  141  142 1   
   143  141  144 1   
   144  141  150 1   
   145  142  143 2   
   146  142  162 1   
   147  144  145 1   
   148  144  151 1   
   149  144  152 1   
   150  145  146 1   
   151  145  153 1   
   152  145  154 1   
   153  146  147 1   
   154  146  155 1   
   155  146  156 1   
   156  147  148 1   
   157  147  157 1   
   158  147  158 1   
   159  148  159 1   
   160  148  160 1   
   161  148  161 1   
   162  162  163 1   
   163  162  171 1   
   164  163  164 1   
   165  163  166 1   
   166  163  172 1   
   167  164  165 2   
   168  164  177 1   
   169  166  167 1   
   170  166  173 1   
   171  166  174 1   
   172  167  168 1   
   173  167  175 1   
   174  167  176 1   
   175  168  169 1   
   176  168  170 1   
   177  177  178 1   
   178  177  182 1   
   179  178  179 1   
   180  178  180 1   
   181  178  181 1   
   182  184  185 1   
   183  184  186 1   
   184  187  188 1   
   185  187  189 1   
   186  190  191 1   
   187  190  192 1   
@<TRIPOS>SUBSTRUCTURE
     1 MOL         1 TEMP              0 ****  ****    0 ROOT
