@<TRIPOS>MOLECULE
MOL
  192   187     1     0     0
SMALL
resp


@<TRIPOS>ATOM
      1 C1         -4.6270   -5.0220   -2.7870 c3        1 MOL     -0.288622
      2 C2         -5.2520   -3.7960   -2.0570 c         1 MOL      0.825273
      3 O1         -4.6700   -3.0870   -1.2680 o         1 MOL     -0.779350
      4 H1         -3.6890   -5.2940   -2.3020 hc        1 MOL      0.075528
      5 H2         -5.3180   -5.8650   -2.7400 hc        1 MOL      0.075528
      6 H3         -4.4370   -4.7670   -3.8300 hc        1 MOL      0.075528
      7 N1         -6.5220   -3.4600   -2.3130 n         1 MOL     -0.786859
      8 C3         -7.2210   -2.2380   -1.8700 c3        1 MOL      0.366332
      9 C4         -6.3460   -0.9620   -1.7490 c         1 MOL      0.081298
     10 O2         -6.0790   -0.6220   -0.5610 o         1 MOL     -0.222417
     11 C5         -8.2270   -2.4670   -0.7470 c3        1 MOL     -0.085891
     12 C6         -7.7210   -3.2860    0.4510 c         1 MOL      0.771220
     13 O3         -6.5980   -3.1290    0.9660 o         1 MOL     -0.723974
     14 O4         -8.5250   -3.9470    1.0480 o         1 MOL     -0.723974
     15 H4         -6.9090   -3.9950   -3.0730 hn        1 MOL      0.341022
     16 H5         -7.8480   -1.9200   -2.7090 h1        1 MOL     -0.013172
     17 H6         -9.0030   -3.1100   -1.1600 hc        1 MOL     -0.001414
     18 H7         -8.6010   -1.4960   -0.4220 hc        1 MOL     -0.001414
     19 N2         -5.8860   -0.3620   -2.8650 n         1 MOL     -0.232769
     20 C7         -5.0050    0.7930   -3.1200 c3        1 MOL     -0.034233
     21 C8         -5.6070    2.0640   -2.5030 c         1 MOL      0.370836
     22 O5         -5.7340    3.0620   -3.1980 o         1 MOL     -0.542686
     23 C9         -3.5640    0.5060   -2.6130 c3        1 MOL      0.113546
     24 C10        -2.5620    1.6130   -2.6900 c3        1 MOL     -0.033260
     25 C11        -2.9030   -0.7990   -3.2820 c3        1 MOL     -0.082106
     26 C12        -2.2040    2.0810   -4.1400 c3        1 MOL     -0.419781
     27 H8         -6.1430   -0.7980   -3.7360 hn        1 MOL      0.248300
     28 H9         -4.8700    1.0660   -4.1720 h1        1 MOL      0.065594
     29 H10        -3.6430    0.3380   -1.5380 hc        1 MOL     -0.071595
     30 H11        -1.5970    1.3640   -2.2450 hc        1 MOL      0.067898
     31 H12        -2.7530    2.4540   -2.0240 hc        1 MOL      0.067898
     32 H13        -3.5310   -1.6750   -3.1320 hc        1 MOL      0.024573
     33 H14        -2.7220   -0.6900   -4.3530 hc        1 MOL      0.024573
     34 H15        -1.9500   -0.9410   -2.7790 hc        1 MOL      0.024573
     35 H16        -1.3830    1.4290   -4.4730 hc        1 MOL      0.106503
     36 H17        -3.0730    1.9430   -4.7850 hc        1 MOL      0.106503
     37 H18        -1.9260    3.1310   -4.1220 hc        1 MOL      0.106503
     38 N3         -6.0230    2.0760   -1.2060 n         1 MOL      0.081891
     39 C13        -6.8780    2.9930   -0.5240 c3        1 MOL     -0.174448
     40 C14        -6.2770    4.3310   -0.2470 c         1 MOL      0.652059
     41 O6         -7.0120    5.3420   -0.4580 o         1 MOL     -0.619046
     42 C15        -7.6780    2.4910    0.6750 c3        1 MOL     -0.099975
     43 C16        -8.6610    1.3430    0.3130 c         1 MOL      0.601607
     44 O7         -9.1920    1.3420   -0.8600 o         1 MOL     -0.667704
     45 O8         -8.8400    0.4400    1.1700 o         1 MOL     -0.667704
     46 H19        -5.9690    1.2580   -0.6110 hn        1 MOL      0.052642
     47 H20        -7.5810    3.2950   -1.2970 h1        1 MOL      0.073549
     48 H21        -8.2240    3.2730    1.2030 hc        1 MOL      0.048035
     49 H22        -6.9920    2.1440    1.4490 hc        1 MOL      0.048035
     50 N4         -5.0480    4.5850    0.0920 n         1 MOL     -0.646569
     51 C17        -4.0350    3.7580    0.8080 c3        1 MOL      0.263729
     52 C18        -4.5390    3.4090    2.2470 c         1 MOL      0.448711
     53 O9         -5.6240    3.7870    2.6930 o         1 MOL     -0.536754
     54 H23        -4.7880    5.5350   -0.1290 hn        1 MOL      0.307740
     55 H24        -3.1100    4.3120    0.9360 h1        1 MOL      0.012544
     56 H25        -3.8460    2.8460    0.2450 h1        1 MOL      0.012544
     57 N5         -3.8280    2.6590    3.0000 n         1 MOL     -0.351145
     58 C19        -2.4620    2.1690    2.8490 c3        1 MOL     -0.000505
     59 C20        -2.3240    1.1040    1.7480 c         1 MOL      0.381652
     60 O10        -3.2990    0.5460    1.2420 o         1 MOL     -0.523353
     61 C21        -1.9740    1.4850    4.2040 c3        1 MOL     -0.440875
     62 C22        -2.3720    2.2630    5.4810 c         1 MOL      0.773100
     63 O11        -3.2360    1.8010    6.2360 o         1 MOL     -0.720836
     64 O12        -1.8240    3.3880    5.7450 o         1 MOL     -0.720836
     65 H26        -4.3210    2.2000    3.7540 hn        1 MOL      0.298646
     66 H27        -1.9200    3.0860    2.6360 h1        1 MOL      0.101453
     67 H28        -0.8910    1.4220    4.1580 hc        1 MOL      0.101195
     68 H29        -2.3180    0.4550    4.2780 hc        1 MOL      0.101195
     69 N6         -1.1280    0.7660    1.1440 n         1 MOL     -0.131160
     70 C23         0.2050    1.4800    1.3350 c3        1 MOL     -0.103357
     71 C24         0.2540    2.7900    0.6110 c         1 MOL      0.522716
     72 O13        -0.8260    3.3700    0.3480 o         1 MOL     -0.500394
     73 H30        -1.1810    0.0080    0.4760 hn        1 MOL      0.071207
     74 H31         1.0760    0.8970    1.0440 h1        1 MOL      0.071669
     75 H32         0.3010    1.6820    2.4080 h1        1 MOL      0.071669
     76 N7          1.4280    3.3430    0.3050 n         1 MOL     -0.322544
     77 C25         1.6700    4.5670   -0.4370 c3        1 MOL     -0.075172
     78 C26         2.5090    4.4510   -1.7730 c         1 MOL      0.641614
     79 O14         2.7130    5.4540   -2.4580 o         1 MOL     -0.524176
     80 C27         2.1630    5.6930    0.5020 c3        1 MOL     -0.036275
     81 C28         3.5100    5.3280    1.2640 c3        1 MOL     -0.018442
     82 C29         4.1290    6.4140    2.1070 c         1 MOL      0.584560
     83 N8          3.7080    6.4570    3.3100 n         1 MOL     -0.734356
     84 O15         5.0270    7.2330    1.7200 o         1 MOL     -0.572728
     85 H33         2.2190    2.8140    0.6410 hn        1 MOL      0.233206
     86 H34         0.6880    4.8190   -0.8280 h1        1 MOL      0.093506
     87 H35         1.4730    5.9100    1.3100 hc        1 MOL      0.053371
     88 H36         2.2530    6.5660   -0.1590 hc        1 MOL      0.053371
     89 H37         4.2450    5.0370    0.5260 hc        1 MOL     -0.037427
     90 H38         3.3280    4.4730    1.9290 hc        1 MOL     -0.037427
     91 H39         2.9340    5.8940    3.6090 hn        1 MOL      0.362791
     92 H40         4.1380    7.0690    3.9960 hn        1 MOL      0.362791
     93 N9          2.9620    3.2330   -2.1320 n         1 MOL     -0.473772
     94 C30         3.5340    2.8110   -3.4380 c3        1 MOL     -0.129596
     95 C31         4.9410    2.2170   -3.2460 c         1 MOL      0.768379
     96 O16         5.6090    2.0520   -4.2370 o         1 MOL     -0.572919
     97 C32         2.4770    1.8460   -4.1160 c3        1 MOL      0.230988
     98 C33         1.1010    2.6470   -4.3030 c3        1 MOL     -0.312959
     99 C34         2.1890    0.4460   -3.4290 c3        1 MOL     -0.312959
    100 H41         2.5700    2.4630   -1.6050 hn        1 MOL      0.192709
    101 H42         3.6970    3.7100   -4.0350 h1        1 MOL      0.108273
    102 H43         2.9760    1.6870   -5.0720 hc        1 MOL     -0.002098
    103 H44         0.6050    2.7570   -3.3340 hc        1 MOL      0.081568
    104 H45         1.3640    3.6640   -4.6150 hc        1 MOL      0.081568
    105 H46         0.4510    2.1910   -5.0510 hc        1 MOL      0.081568
    106 H47         3.1560   -0.0520   -3.5410 hc        1 MOL      0.081568
    107 H48         1.9110    0.4670   -2.3760 hc        1 MOL      0.081568
    108 H49         1.3420   -0.0400   -3.9200 hc        1 MOL      0.081568
    109 N10         5.2840    1.6600   -2.0860 n         1 MOL     -0.511833
    110 C35         6.6050    1.1740   -1.9340 c3        1 MOL     -0.038165
    111 C36         6.7090   -0.3900   -1.5560 c         1 MOL      0.602420
    112 O17         7.5310   -1.1110   -2.1350 o         1 MOL     -0.532517
    113 C37         7.3300    1.9530   -0.8260 c3        1 MOL     -0.313116
    114 C38         7.4740    3.4350   -1.1350 c         1 MOL      0.603643
    115 N11         7.0230    4.3160   -0.2230 n         1 MOL     -0.745989
    116 O18         7.9340    3.7930   -2.2400 o         1 MOL     -0.505103
    117 H50         4.6170    1.4800   -1.3570 hn        1 MOL      0.293212
    118 H51         7.2520    1.4480   -2.7660 h1        1 MOL      0.127831
    119 H52         8.2480    1.4430   -0.5380 hc        1 MOL      0.135603
    120 H53         6.6870    1.8820    0.0490 hc        1 MOL      0.135603
    121 H54         6.7100    4.0840    0.7120 hn        1 MOL      0.355470
    122 H55         6.9090    5.2770   -0.5070 hn        1 MOL      0.355470
    123 N12         5.9790   -0.8140   -0.4770 n         1 MOL     -0.546368
    124 C39         6.1220   -2.1300    0.0760 c3        1 MOL      0.194794
    125 C40         4.7610   -2.7260    0.4090 c         1 MOL      0.507408
    126 O19         3.7580   -1.9830    0.6110 o         1 MOL     -0.491925
    127 C41         6.9950   -2.0510    1.3340 c3        1 MOL      0.012341
    128 C42         8.3510   -1.3450    1.3720 ca        1 MOL     -0.054058
    129 C43         9.4930   -2.0380    1.0050 ca        1 MOL     -0.067846
    130 C44         8.4340    0.0070    1.7470 ca        1 MOL     -0.067846
    131 C45        10.7560   -1.3860    0.9500 ca        1 MOL     -0.339873
    132 C46         9.6730    0.6940    1.6300 ca        1 MOL     -0.339873
    133 C47        10.8290   -0.0470    1.2990 ca        1 MOL      0.423596
    134 O20        12.0950    0.5020    1.2180 oh        1 MOL     -0.544574
    135 H56         5.2710   -0.2850    0.0160 hn        1 MOL      0.265970
    136 H57         6.6530   -2.7600   -0.6410 h1        1 MOL      0.027075
    137 H58         7.1630   -3.0810    1.6280 hc        1 MOL      0.045859
    138 H59         6.4690   -1.6120    2.1810 hc        1 MOL      0.045859
    139 H60         9.3150   -3.0810    0.7890 ha        1 MOL      0.105147
    140 H61         7.5130    0.5250    1.9830 ha        1 MOL      0.105147
    141 H62        11.5880   -1.9180    0.5220 ha        1 MOL      0.160569
    142 H63         9.7100    1.7570    1.8400 ha        1 MOL      0.160569
    143 H64        12.7880   -0.1590    1.1070 ho        1 MOL      0.377139
    144 N13         4.6780   -4.0680    0.4540 n         1 MOL     -0.710233
    145 C48         3.5880   -5.0190    0.8930 c3        1 MOL      0.153837
    146 C49         2.2690   -4.9580    0.0370 c         1 MOL      0.360422
    147 O21         1.5150   -5.9470   -0.0210 o         1 MOL     -0.514137
    148 C50         3.2690   -4.8910    2.4080 c3        1 MOL      0.074099
    149 C51         4.4950   -5.0900    3.2920 c3        1 MOL     -0.139629
    150 C52         4.1340   -5.1330    4.8290 c         1 MOL      0.659057
    151 O22         3.5640   -4.0890    5.3020 o         1 MOL     -0.713525
    152 O23         4.4420   -6.0880    5.5640 o         1 MOL     -0.713525
    153 H65         5.5960   -4.4560    0.2540 hn        1 MOL      0.345552
    154 H66         3.9440   -6.0390    0.7610 h1        1 MOL      0.064130
    155 H67         2.5790   -5.7200    2.5480 hc        1 MOL      0.019830
    156 H68         2.7580   -3.9440    2.5930 hc        1 MOL      0.019830
    157 H69         5.1440   -4.2220    3.1680 hc        1 MOL     -0.018496
    158 H70         5.0800   -5.9760    3.0410 hc        1 MOL     -0.018496
    159 N14         2.1050   -4.0380   -0.8530 n         1 MOL     -0.243549
    160 C53         1.0600   -3.9930   -1.8430 c3        1 MOL     -0.280686
    161 C54         1.3490   -4.9270   -3.0380 c         1 MOL      0.647780
    162 O24         0.4840   -5.6320   -3.4720 o         1 MOL     -0.530212
    163 C55         0.7120   -2.4920   -2.1590 c3        1 MOL      0.098637
    164 C56         0.2980   -1.6300   -0.9350 c3        1 MOL      0.401439
    165 C57        -0.7750   -2.2340   -0.0570 c         1 MOL      0.518979
    166 O25        -0.4270   -2.8990    0.9110 o         1 MOL     -0.629878
    167 O26        -1.9450   -1.8310   -0.0810 o         1 MOL     -0.629878
    168 H71         2.6660   -3.2040   -0.7660 hn        1 MOL      0.241284
    169 H72         0.1800   -4.3990   -1.3520 h1        1 MOL      0.194827
    170 H73        -0.1440   -2.5080   -2.8320 hc        1 MOL     -0.057296
    171 H74         1.5690   -2.0560   -2.6760 hc        1 MOL     -0.057296
    172 H75        -0.1450   -0.7830   -1.4650 hc        1 MOL     -0.126147
    173 H76         1.1310   -1.2210   -0.3720 hc        1 MOL     -0.126147
    174 N15         2.6450   -4.8580   -3.4940 n         1 MOL     -0.385023
    175 C58         3.1790   -5.7540   -4.5580 c3        1 MOL     -0.201123
    176 H77         4.1040   -6.2160   -4.2120 h1        1 MOL      0.094963
    177 H78         2.4470   -6.5300   -4.7820 h1        1 MOL      0.094963
    178 H79         3.3790   -5.1720   -5.4570 h1        1 MOL      0.094963
    179 H80         3.3020   -4.2240   -3.0840 hn        1 MOL      0.275024
    180 Ca1        -4.3160   -1.9140    1.1100 Ca        1 MOL      1.789944
    181 O27        -6.0690   -0.3650    2.3830 oh        1 MOL     -0.828707
    182 H81        -7.0200   -0.3500    2.4270 ho        1 MOL      0.402293
    183 H82        -5.7870    0.4150    2.8430 ho        1 MOL      0.402293
    184 O28        -4.1140   -4.5790    1.7420 oh        1 MOL     -0.828707
    185 H83        -4.6740   -5.3330    1.5470 ho        1 MOL      0.402293
    186 H84        -3.2420   -4.9590    1.8300 ho        1 MOL      0.402293
    187 O29        -1.9790   -2.0000    2.8460 oh        1 MOL     -0.828707
    188 H85        -1.3260   -2.1690    2.1600 ho        1 MOL      0.402293
    189 H86        -1.4690   -1.9480    3.6570 ho        1 MOL      0.402293
    190 O30        -4.6380   -1.9300    4.0240 oh        1 MOL     -0.828707
    191 H87        -4.8680   -1.1230    4.4950 ho        1 MOL      0.402293
    192 H88        -4.0380   -2.3900    4.6100 ho        1 MOL      0.402293
@<TRIPOS>BOND
     1    1    2 1   
     2    1    4 1   
     3    1    5 1   
     4    1    6 1   
     5    2    3 2   
     6    2    7 1   
     7    7    8 1   
     8    7   15 1   
     9    8    9 1   
    10    8   11 1   
    11    8   16 1   
    12    9   10 2   
    13    9   19 1   
    14   11   12 1   
    15   11   17 1   
    16   11   18 1   
    17   12   13 1   
    18   12   14 1   
    19   19   20 1   
    20   19   27 1   
    21   20   21 1   
    22   20   23 1   
    23   20   28 1   
    24   21   22 2   
    25   21   38 1   
    26   23   24 1   
    27   23   25 1   
    28   23   29 1   
    29   24   26 1   
    30   24   30 1   
    31   24   31 1   
    32   25   32 1   
    33   25   33 1   
    34   25   34 1   
    35   26   35 1   
    36   26   36 1   
    37   26   37 1   
    38   38   39 1   
    39   38   46 1   
    40   39   40 1   
    41   39   42 1   
    42   39   47 1   
    43   40   41 2   
    44   40   50 1   
    45   42   43 1   
    46   42   48 1   
    47   42   49 1   
    48   43   44 1   
    49   43   45 1   
    50   50   51 1   
    51   50   54 1   
    52   51   52 1   
    53   51   55 1   
    54   51   56 1   
    55   52   53 2   
    56   52   57 1   
    57   57   58 1   
    58   57   65 1   
    59   58   59 1   
    60   58   61 1   
    61   58   66 1   
    62   59   60 2   
    63   59   69 1   
    64   61   62 1   
    65   61   67 1   
    66   61   68 1   
    67   62   63 1   
    68   62   64 1   
    69   69   70 1   
    70   69   73 1   
    71   70   71 1   
    72   70   74 1   
    73   70   75 1   
    74   71   72 2   
    75   71   76 1   
    76   76   77 1   
    77   76   85 1   
    78   77   78 1   
    79   77   80 1   
    80   77   86 1   
    81   78   79 2   
    82   78   93 1   
    83   80   81 1   
    84   80   87 1   
    85   80   88 1   
    86   81   82 1   
    87   81   89 1   
    88   81   90 1   
    89   82   83 1   
    90   82   84 2   
    91   83   91 1   
    92   83   92 1   
    93   93   94 1   
    94   93  100 1   
    95   94   95 1   
    96   94   97 1   
    97   94  101 1   
    98   95   96 2   
    99   95  109 1   
   100   97   98 1   
   101   97   99 1   
   102   97  102 1   
   103   98  103 1   
   104   98  104 1   
   105   98  105 1   
   106   99  106 1   
   107   99  107 1   
   108   99  108 1   
   109  109  110 1   
   110  109  117 1   
   111  110  111 1   
   112  110  113 1   
   113  110  118 1   
   114  111  112 2   
   115  111  123 1   
   116  113  114 1   
   117  113  119 1   
   118  113  120 1   
   119  114  115 1   
   120  114  116 2   
   121  115  121 1   
   122  115  122 1   
   123  123  124 1   
   124  123  135 1   
   125  124  125 1   
   126  124  127 1   
   127  124  136 1   
   128  125  126 2   
   129  125  144 1   
   130  127  128 1   
   131  127  137 1   
   132  127  138 1   
   133  128  129 ar  
   134  128  130 ar  
   135  129  131 ar  
   136  129  139 1   
   137  130  132 ar  
   138  130  140 1   
   139  131  133 ar  
   140  131  141 1   
   141  132  133 ar  
   142  132  142 1   
   143  133  134 1   
   144  134  143 1   
   145  144  145 1   
   146  144  153 1   
   147  145  146 1   
   148  145  148 1   
   149  145  154 1   
   150  146  147 2   
   151  146  159 1   
   152  148  149 1   
   153  148  155 1   
   154  148  156 1   
   155  149  150 1   
   156  149  157 1   
   157  149  158 1   
   158  150  151 1   
   159  150  152 1   
   160  159  160 1   
   161  159  168 1   
   162  160  161 1   
   163  160  163 1   
   164  160  169 1   
   165  161  162 2   
   166  161  174 1   
   167  163  164 1   
   168  163  170 1   
   169  163  171 1   
   170  164  165 1   
   171  164  172 1   
   172  164  173 1   
   173  165  166 1   
   174  165  167 1   
   175  174  175 1   
   176  174  179 1   
   177  175  176 1   
   178  175  177 1   
   179  175  178 1   
   180  181  182 1   
   181  181  183 1   
   182  184  185 1   
   183  184  186 1   
   184  187  188 1   
   185  187  189 1   
   186  190  191 1   
   187  190  192 1   
@<TRIPOS>SUBSTRUCTURE
     1 MOL         1 TEMP              0 ****  ****    0 ROOT
