@<TRIPOS>MOLECULE
MOL
  178   175     1     0     0
SMALL
resp


@<TRIPOS>ATOM
      1 C1          1.1500    6.6280   -2.5670 c3        1 MOL     -0.345981
      2 C2          2.5080    6.1920   -1.9180 c         1 MOL      0.675662
      3 O1          2.7970    6.7100   -0.8260 o         1 MOL     -0.568630
      4 H1          0.3800    5.8970   -2.3210 hc        1 MOL      0.082558
      5 H2          0.8600    7.6050   -2.1800 hc        1 MOL      0.082558
      6 H3          1.2660    6.6840   -3.6490 hc        1 MOL      0.082558
      7 N1          3.3180    5.3520   -2.5780 n         1 MOL     -0.551681
      8 C3          4.5690    4.7270   -2.0300 c3        1 MOL      0.102207
      9 C4          4.3600    4.0030   -0.6900 c         1 MOL      0.679839
     10 O2          3.5120    3.1300   -0.4720 o         1 MOL     -0.578466
     11 C5          5.2020    3.8380   -3.0770 c3        1 MOL     -0.399421
     12 C6          6.6280    3.5120   -2.7510 c         1 MOL      0.721525
     13 O3          6.9240    2.3040   -2.5870 o         1 MOL     -0.726253
     14 O4          7.5240    4.3740   -2.5100 o         1 MOL     -0.726253
     15 H4          2.9870    4.9670   -3.4390 hn        1 MOL      0.302653
     16 H5          5.2230    5.5670   -1.7910 h1        1 MOL      0.044378
     17 H6          5.1060    4.3640   -4.0370 hc        1 MOL      0.085827
     18 H7          4.7680    2.8500   -3.1600 hc        1 MOL      0.085827
     19 N2          5.0850    4.4620    0.2860 n         1 MOL     -0.482354
     20 C7          5.0100    4.0860    1.6620 c3        1 MOL      0.369975
     21 C8          3.5810    3.9740    2.2400 c         1 MOL      0.369949
     22 O5          2.7350    4.8300    1.9750 o         1 MOL     -0.512901
     23 C9          5.7760    5.0790    2.4940 c3        1 MOL     -0.490878
     24 H8          5.6280    5.3020    0.2110 hn        1 MOL      0.287967
     25 H9          5.4430    3.0860    1.7390 h1        1 MOL      0.029813
     26 H10         6.7390    5.2630    2.0210 hc        1 MOL      0.126834
     27 H11         5.2190    5.9980    2.6880 hc        1 MOL      0.126834
     28 H12         5.8920    4.7280    3.5130 hc        1 MOL      0.126834
     29 N3          3.3090    2.9880    3.0860 n         1 MOL     -0.258024
     30 C10         4.2380    1.9630    3.6040 c3        1 MOL     -0.047792
     31 C11         4.4410    0.7930    2.5890 c         1 MOL      0.313027
     32 O6          3.7360    0.7340    1.5770 o         1 MOL     -0.386918
     33 C12         3.5460    1.4290    4.9160 c3        1 MOL     -0.200682
     34 C13         2.0500    1.0550    4.8980 c         1 MOL      0.706953
     35 O7          1.4210    1.2940    5.9420 o         1 MOL     -0.681781
     36 O8          1.5910    0.5900    3.8510 o         1 MOL     -0.681781
     37 H13         2.3330    2.9190    3.3110 hn        1 MOL      0.238747
     38 H14         5.2200    2.4070    3.7850 h1        1 MOL      0.041789
     39 H15         3.6840    2.1990    5.6710 hc        1 MOL      0.047680
     40 H16         4.0620    0.5140    5.1850 hc        1 MOL      0.047680
     41 N4          5.3900   -0.0610    2.9030 n         1 MOL     -0.332850
     42 C14         5.8390   -1.1760    2.0680 c3        1 MOL      0.010828
     43 C15         6.8790   -0.7250    1.0460 c         1 MOL      0.491509
     44 O9          7.3750    0.3990    1.0540 o         1 MOL     -0.480516
     45 H17         5.7840    0.0870    3.8220 hn        1 MOL      0.273622
     46 H18         5.0030   -1.6050    1.5050 h1        1 MOL      0.043755
     47 H19         6.2150   -2.0430    2.5980 h1        1 MOL      0.043755
     48 N5          7.4410   -1.6550    0.1990 n         1 MOL     -0.476572
     49 C16         7.0530   -3.0490    0.0750 c3        1 MOL     -0.063750
     50 C17         6.0170   -3.3530   -0.9520 c         1 MOL      0.746707
     51 O10         5.6700   -4.5410   -1.0600 o         1 MOL     -0.603070
     52 C18         8.2940   -3.8710   -0.0600 c3        1 MOL     -0.199264
     53 C19         8.9330   -3.9760   -1.4580 c         1 MOL      0.630643
     54 N6          9.9530   -4.8070   -1.6630 n         1 MOL     -0.775831
     55 O11         8.5230   -3.2030   -2.3620 o         1 MOL     -0.528018
     56 H20         8.2200   -1.2960   -0.3310 hn        1 MOL      0.331727
     57 H21         6.6630   -3.3420    1.0530 h1        1 MOL      0.108453
     58 H22         8.1810   -4.9000    0.2730 hc        1 MOL      0.070998
     59 H23         9.0110   -3.3900    0.6140 hc        1 MOL      0.070998
     60 H24        10.3190   -5.3610   -0.9100 hn        1 MOL      0.367813
     61 H25        10.3540   -4.6870   -2.5860 hn        1 MOL      0.367813
     62 N7          5.3280   -2.3380   -1.4940 n         1 MOL     -0.555790
     63 C20         4.5570   -2.3540   -2.7670 c3        1 MOL     -0.082033
     64 C21         3.2600   -3.1870   -2.7010 c         1 MOL      0.404427
     65 O12         2.7080   -3.3890   -3.7640 o         1 MOL     -0.540395
     66 H26         5.6350   -1.4340   -1.1710 hn        1 MOL      0.339704
     67 H27         5.1070   -2.6570   -3.6560 h1        1 MOL      0.129103
     68 H28         4.2480   -1.3300   -2.9720 h1        1 MOL      0.129103
     69 N8          2.7520   -3.7140   -1.5880 n         1 MOL     -0.067547
     70 C22         1.3920   -4.3390   -1.3300 c3        1 MOL     -0.252672
     71 C23         0.1750   -3.3160   -1.2120 c         1 MOL      0.367508
     72 O13         0.3430   -2.1360   -0.7540 o         1 MOL     -0.427767
     73 C24         1.5310   -5.2410   -0.1340 c3        1 MOL      0.475814
     74 C25         2.2170   -6.5720   -0.3850 c3        1 MOL     -0.355504
     75 O14         2.1080   -4.5160    0.9440 oh        1 MOL     -0.686577
     76 H29         3.3100   -3.4720   -0.7820 hn        1 MOL      0.178236
     77 H30         1.2510   -5.0420   -2.1460 h1        1 MOL      0.109162
     78 H31         0.5450   -5.5340    0.2270 h1        1 MOL      0.014296
     79 H32         1.6880   -4.9390    1.6960 ho        1 MOL      0.439514
     80 H33         1.4680   -7.3180   -0.6770 hc        1 MOL      0.087829
     81 H34         3.0320   -6.5250   -1.1150 hc        1 MOL      0.087829
     82 H35         2.6370   -6.8960    0.5720 hc        1 MOL      0.087829
     83 N9         -1.0250   -3.7940   -1.5280 n         1 MOL     -0.238427
     84 C26        -2.2380   -3.0460   -1.2100 c3        1 MOL     -0.096611
     85 C27        -2.7190   -3.4680    0.1970 c         1 MOL      0.487038
     86 O15        -2.8720   -4.6030    0.5700 o         1 MOL     -0.582905
     87 C28        -3.3300   -3.2560   -2.2470 c3        1 MOL      0.008695
     88 C29        -4.6130   -2.5400   -1.8380 c3        1 MOL      0.117726
     89 C30        -2.8380   -2.6880   -3.6090 c3        1 MOL     -0.123438
     90 C31        -5.8230   -2.9530   -2.7030 c3        1 MOL     -0.217151
     91 H36        -1.0920   -4.7640   -1.7920 hn        1 MOL      0.251566
     92 H37        -2.0760   -1.9700   -1.1760 h1        1 MOL      0.142590
     93 H38        -3.4900   -4.3290   -2.3010 hc        1 MOL      0.024165
     94 H39        -4.4430   -1.4700   -1.8040 hc        1 MOL      0.008855
     95 H40        -4.9770   -2.9480   -0.8860 hc        1 MOL      0.008855
     96 H41        -1.9830   -3.2440   -3.9860 hc        1 MOL      0.026597
     97 H42        -3.5920   -2.6730   -4.3990 hc        1 MOL      0.026597
     98 H43        -2.6210   -1.6280   -3.4610 hc        1 MOL      0.026597
     99 H44        -5.9980   -4.0340   -2.6680 hc        1 MOL      0.032793
    100 H45        -6.7600   -2.5600   -2.2880 hc        1 MOL      0.032793
    101 H46        -5.8010   -2.5670   -3.7160 hc        1 MOL      0.032793
    102 N10        -3.0840   -2.4160    0.9160 n         1 MOL      0.005871
    103 C32        -3.6280   -2.4140    2.2250 c3        1 MOL     -0.038262
    104 C33        -4.9980   -1.7770    2.2580 c         1 MOL      0.414390
    105 O16        -5.6710   -2.0190    3.2720 o         1 MOL     -0.557156
    106 C34        -2.6390   -1.8020    3.2260 c3        1 MOL     -0.063995
    107 C35        -1.2570   -2.3990    3.0880 c         1 MOL      0.622642
    108 O17        -0.9980   -3.5530    3.5320 o         1 MOL     -0.703130
    109 O18        -0.3370   -1.6980    2.5440 o         1 MOL     -0.703130
    110 H47        -2.9110   -1.5060    0.5180 hn        1 MOL     -0.093100
    111 H48        -3.8640   -3.4380    2.4970 h1        1 MOL      0.096781
    112 H49        -3.0080   -1.9660    4.2370 hc        1 MOL      0.035617
    113 H50        -2.6210   -0.7250    3.0560 hc        1 MOL      0.035617
    114 N11        -5.4350   -1.0700    1.2290 n         1 MOL     -0.415730
    115 C36        -6.7270   -0.3710    1.1160 c3        1 MOL      0.174086
    116 C37        -6.6580    1.0060    0.3890 c         1 MOL      0.216448
    117 O19        -7.0180    1.0700   -0.7980 o         1 MOL     -0.481692
    118 C38        -7.7150   -1.3760    0.5700 c3        1 MOL     -0.378396
    119 C39        -9.1910   -0.9790    0.4950 ca        1 MOL      0.158548
    120 C40        -9.9530   -1.1930   -0.6580 ca        1 MOL     -0.122607
    121 C41        -9.8120   -0.6040    1.7040 ca        1 MOL     -0.122607
    122 C42       -11.3620   -1.1880   -0.5060 ca        1 MOL     -0.189646
    123 C43       -11.2030   -0.5890    1.8080 ca        1 MOL     -0.189646
    124 C44       -11.9410   -0.8230    0.7160 ca        1 MOL     -0.045660
    125 H51        -4.7700   -0.7560    0.5410 hn        1 MOL      0.383557
    126 H52        -7.1330   -0.0790    2.0860 h1        1 MOL      0.031486
    127 H53        -7.6040   -2.2690    1.1970 hc        1 MOL      0.146436
    128 H54        -7.4190   -1.7320   -0.4190 hc        1 MOL      0.146436
    129 H55        -9.5140   -1.4910   -1.5950 ha        1 MOL      0.123290
    130 H56        -9.3350   -0.4630    2.6600 ha        1 MOL      0.123290
    131 H57       -11.9360   -1.3440   -1.4110 ha        1 MOL      0.114244
    132 H58       -11.6710   -0.2080    2.6960 ha        1 MOL      0.114244
    133 H59       -13.0210   -0.8270    0.8310 ha        1 MOL      0.069739
    134 N12        -6.0310    1.9690    1.0830 n         1 MOL      0.073909
    135 C45        -5.7680    3.3000    0.4850 c3        1 MOL      0.064995
    136 C46        -5.1650    3.3810   -0.8860 c         1 MOL      0.169675
    137 O20        -5.3540    4.3260   -1.6530 o         1 MOL     -0.490453
    138 C47        -4.7800    3.9610    1.4950 c3        1 MOL     -0.203279
    139 C48        -5.2540    3.3330    2.8390 c3        1 MOL     -0.024410
    140 C49        -5.5190    1.9040    2.3940 c3        1 MOL     -0.184514
    141 H60        -6.7040    3.8620    0.5920 h1        1 MOL      0.068386
    142 H61        -3.7440    3.6550    1.3250 hc        1 MOL      0.107333
    143 H62        -5.0350    5.0140    1.4920 hc        1 MOL      0.107333
    144 H63        -4.5040    3.4990    3.6170 hc        1 MOL      0.036886
    145 H64        -6.2070    3.7800    3.1190 hc        1 MOL      0.036886
    146 H65        -4.6200    1.2850    2.3860 h1        1 MOL      0.109540
    147 H66        -6.2900    1.5310    3.0740 h1        1 MOL      0.109540
    148 N13        -4.4260    2.4170   -1.3170 n         1 MOL      0.008840
    149 C50        -3.7670    2.3680   -2.6340 c3        1 MOL     -0.154461
    150 C51        -4.7990    2.2770   -3.7780 c         1 MOL      0.390874
    151 O21        -4.7150    2.9860   -4.8560 o         1 MOL     -0.553402
    152 C52        -2.8440    1.1800   -2.7310 c3        1 MOL     -0.015593
    153 C53        -1.6860    1.0460   -1.7450 c3        1 MOL     -0.190060
    154 C54        -2.1960    0.5850   -0.3460 c         1 MOL      0.652645
    155 O22        -1.2940    0.4630    0.5400 o         1 MOL     -0.638118
    156 O23        -3.3340    0.2090   -0.0720 o         1 MOL     -0.638118
    157 H67        -4.4010    1.5930   -0.7170 hn        1 MOL      0.152638
    158 H68        -3.1830    3.2680   -2.8280 h1        1 MOL      0.134539
    159 H69        -2.3540    1.2550   -3.6960 hc        1 MOL      0.016217
    160 H70        -3.3820    0.2400   -2.8550 hc        1 MOL      0.016217
    161 H71        -1.0850    1.9570   -1.7020 hc        1 MOL      0.080908
    162 H72        -0.9770    0.2900   -2.0950 hc        1 MOL      0.080908
    163 N14        -5.8560    1.5270   -3.5780 n         1 MOL     -0.041348
    164 C55        -7.0490    1.4740   -4.4650 c3        1 MOL     -0.324084
    165 H73        -7.7260    0.6940   -4.1170 h1        1 MOL      0.118814
    166 H74        -7.5610    2.4350   -4.4420 h1        1 MOL      0.118814
    167 H75        -6.7350    1.2520   -5.4840 h1        1 MOL      0.118814
    168 H76        -5.7890    0.9180   -2.7760 hn        1 MOL      0.169539
    169 Ca1         1.0430   -0.0300    1.3450 Ca        1 MOL      1.653926
    170 O24         2.6470   -2.1310    1.5820 oh        1 MOL     -0.923019
    171 H77         2.3570   -2.9400    1.1740 ho        1 MOL      0.438488
    172 H78         3.0760   -2.4010    2.3860 ho        1 MOL      0.438488
    173 O25         1.1270    2.4090    0.3540 oh        1 MOL     -0.923019
    174 H79         0.7550    3.2050   -0.0360 ho        1 MOL      0.438488
    175 H80         2.0460    2.4040    0.0810 ho        1 MOL      0.438488
    176 O26         2.3910   -0.0350   -1.0060 oh        1 MOL     -0.923019
    177 H81         2.2920   -0.9240   -1.3510 ho        1 MOL      0.438488
    178 H82         3.3270    0.1600   -1.0930 ho        1 MOL      0.438488
@<TRIPOS>BOND
     1    1    2 1   
     2    1    4 1   
     3    1    5 1   
     4    1    6 1   
     5    2    3 2   
     6    2    7 1   
     7    7    8 1   
     8    7   15 1   
     9    8    9 1   
    10    8   11 1   
    11    8   16 1   
    12    9   10 2   
    13    9   19 1   
    14   11   12 1   
    15   11   17 1   
    16   11   18 1   
    17   12   13 1   
    18   12   14 1   
    19   19   20 1   
    20   19   24 1   
    21   20   21 1   
    22   20   23 1   
    23   20   25 1   
    24   21   22 2   
    25   21   29 1   
    26   23   26 1   
    27   23   27 1   
    28   23   28 1   
    29   29   30 1   
    30   29   37 1   
    31   30   31 1   
    32   30   33 1   
    33   30   38 1   
    34   31   32 2   
    35   31   41 1   
    36   33   34 1   
    37   33   39 1   
    38   33   40 1   
    39   34   35 1   
    40   34   36 1   
    41   41   42 1   
    42   41   45 1   
    43   42   43 1   
    44   42   46 1   
    45   42   47 1   
    46   43   44 2   
    47   43   48 1   
    48   48   49 1   
    49   48   56 1   
    50   49   50 1   
    51   49   52 1   
    52   49   57 1   
    53   50   51 2   
    54   50   62 1   
    55   52   53 1   
    56   52   58 1   
    57   52   59 1   
    58   53   54 1   
    59   53   55 2   
    60   54   60 1   
    61   54   61 1   
    62   62   63 1   
    63   62   66 1   
    64   63   64 1   
    65   63   67 1   
    66   63   68 1   
    67   64   65 2   
    68   64   69 1   
    69   69   70 1   
    70   69   76 1   
    71   70   71 1   
    72   70   73 1   
    73   70   77 1   
    74   71   72 2   
    75   71   83 1   
    76   73   74 1   
    77   73   75 1   
    78   73   78 1   
    79   74   80 1   
    80   74   81 1   
    81   74   82 1   
    82   75   79 1   
    83   83   84 1   
    84   83   91 1   
    85   84   85 1   
    86   84   87 1   
    87   84   92 1   
    88   85   86 2   
    89   85  102 1   
    90   87   88 1   
    91   87   89 1   
    92   87   93 1   
    93   88   90 1   
    94   88   94 1   
    95   88   95 1   
    96   89   96 1   
    97   89   97 1   
    98   89   98 1   
    99   90   99 1   
   100   90  100 1   
   101   90  101 1   
   102  102  103 1   
   103  102  110 1   
   104  103  104 1   
   105  103  106 1   
   106  103  111 1   
   107  104  105 2   
   108  104  114 1   
   109  106  107 1   
   110  106  112 1   
   111  106  113 1   
   112  107  108 1   
   113  107  109 1   
   114  114  115 1   
   115  114  125 1   
   116  115  116 1   
   117  115  118 1   
   118  115  126 1   
   119  116  117 2   
   120  116  134 1   
   121  118  119 1   
   122  118  127 1   
   123  118  128 1   
   124  119  120 ar  
   125  119  121 ar  
   126  120  122 ar  
   127  120  129 1   
   128  121  123 ar  
   129  121  130 1   
   130  122  124 ar  
   131  122  131 1   
   132  123  124 ar  
   133  123  132 1   
   134  124  133 1   
   135  134  135 1   
   136  134  140 1   
   137  135  136 1   
   138  135  138 1   
   139  135  141 1   
   140  136  137 2   
   141  136  148 1   
   142  138  139 1   
   143  138  142 1   
   144  138  143 1   
   145  139  140 1   
   146  139  144 1   
   147  139  145 1   
   148  140  146 1   
   149  140  147 1   
   150  148  149 1   
   151  148  157 1   
   152  149  150 1   
   153  149  152 1   
   154  149  158 1   
   155  150  151 2   
   156  150  163 1   
   157  152  153 1   
   158  152  159 1   
   159  152  160 1   
   160  153  154 1   
   161  153  161 1   
   162  153  162 1   
   163  154  155 1   
   164  154  156 1   
   165  163  164 1   
   166  163  168 1   
   167  164  165 1   
   168  164  166 1   
   169  164  167 1   
   170  170  171 1   
   171  170  172 1   
   172  173  174 1   
   173  173  175 1   
   174  176  177 1   
   175  176  178 1   
@<TRIPOS>SUBSTRUCTURE
     1 MOL         1 TEMP              0 ****  ****    0 ROOT
