@<TRIPOS>MOLECULE
MOL
  181   177     1     0     0
SMALL
resp


@<TRIPOS>ATOM
      1 C1         -2.0720   -5.9320   -2.5810 c3        1 MOL     -0.494415
      2 C2         -3.5750   -5.9720   -2.1340 c         1 MOL      0.728239
      3 O1         -3.9310   -6.7320   -1.2460 o         1 MOL     -0.614772
      4 H1         -1.4370   -5.7870   -1.7070 hc        1 MOL      0.120472
      5 H2         -1.8120   -6.8720   -3.0660 hc        1 MOL      0.120472
      6 H3         -1.9210   -5.1080   -3.2780 hc        1 MOL      0.120472
      7 N1         -4.4590   -5.2720   -2.7580 n         1 MOL     -0.480617
      8 C3         -5.8640   -5.0390   -2.3760 c3        1 MOL      0.029217
      9 C4         -5.9610   -3.9740   -1.2030 c         1 MOL      0.502044
     10 O2         -5.8370   -2.8110   -1.3380 o         1 MOL     -0.471701
     11 C5         -6.7120   -4.6080   -3.6730 c3        1 MOL     -0.149894
     12 C6         -8.1550   -4.3180   -3.4670 c         1 MOL      0.656285
     13 O3         -8.6200   -3.1380   -3.2100 o         1 MOL     -0.716430
     14 O4         -8.8850   -5.3410   -3.4780 o         1 MOL     -0.716430
     15 H4         -4.1290   -4.6740   -3.4990 hn        1 MOL      0.272387
     16 H5         -6.2910   -5.9510   -1.9650 h1        1 MOL      0.078383
     17 H6         -6.5680   -5.3510   -4.4500 hc        1 MOL      0.008024
     18 H7         -6.2730   -3.6530   -3.9610 hc        1 MOL      0.008024
     19 N2         -6.2550   -4.5000    0.0110 n         1 MOL     -0.339989
     20 C7         -6.2020   -3.7830    1.2780 c3        1 MOL      0.194204
     21 C8         -4.7460   -3.8390    1.9350 c         1 MOL      0.397534
     22 O5         -4.1070   -4.9070    1.8420 o         1 MOL     -0.533744
     23 C9         -7.2480   -4.4080    2.2200 c3        1 MOL     -0.367537
     24 H8         -6.4890   -5.4800    0.0410 hn        1 MOL      0.244700
     25 H9         -6.5120   -2.7500    1.1640 h1        1 MOL      0.063633
     26 H10        -7.1090   -5.4830    2.3460 hc        1 MOL      0.091014
     27 H11        -7.2010   -3.8740    3.1670 hc        1 MOL      0.091014
     28 H12        -8.2170   -4.3790    1.7240 hc        1 MOL      0.091014
     29 N3         -4.3110   -2.8350    2.7010 n         1 MOL     -0.198112
     30 C10        -5.0170   -1.6420    3.1490 c3        1 MOL     -0.432403
     31 C11        -5.2740   -0.6200    2.0400 c         1 MOL      0.575608
     32 O6         -4.4830   -0.3450    1.1170 o         1 MOL     -0.475699
     33 C12        -4.1190   -0.9180    4.1640 c3        1 MOL      0.183265
     34 C13        -2.6830   -0.7090    3.7440 c         1 MOL      0.454973
     35 O7         -2.1840    0.4410    3.9600 o         1 MOL     -0.630586
     36 O8         -1.9770   -1.5810    3.2040 o         1 MOL     -0.630586
     37 H13        -3.3360   -2.8960    2.9730 hn        1 MOL      0.205571
     38 H14        -5.8810   -1.9860    3.7200 h1        1 MOL      0.179887
     39 H15        -4.2390   -1.5710    5.0320 hc        1 MOL     -0.014450
     40 H16        -4.4960   -0.0030    4.6170 hc        1 MOL     -0.014450
     41 N4         -6.2640    0.2480    2.2860 n         1 MOL     -0.408248
     42 C14        -6.4900    1.5440    1.5770 c3        1 MOL     -0.070454
     43 C15        -7.3880    1.3490    0.3670 c         1 MOL      0.550599
     44 O9         -7.8780    0.2590    0.1060 o         1 MOL     -0.462453
     45 H17        -6.9130   -0.1030    2.9780 hn        1 MOL      0.251011
     46 H18        -5.5660    1.9950    1.2050 h1        1 MOL      0.087376
     47 H19        -6.9770    2.2340    2.2690 h1        1 MOL      0.087376
     48 N5         -7.5560    2.3410   -0.5490 n         1 MOL     -0.466839
     49 C16        -6.7940    3.6300   -0.5830 c3        1 MOL      0.037498
     50 C17        -6.1550    3.8000   -1.9370 c         1 MOL      0.542145
     51 O10        -6.8120    3.7300   -3.0140 o         1 MOL     -0.517253
     52 C18        -7.8480    4.8100   -0.2660 c3        1 MOL     -0.446582
     53 C19        -8.4210    4.8320    1.1630 c         1 MOL      0.762446
     54 N6         -7.5590    4.7310    2.1850 n         1 MOL     -0.808743
     55 O11        -9.6110    4.8330    1.3920 o         1 MOL     -0.553969
     56 H20        -8.3210    2.2920   -1.2060 hn        1 MOL      0.332792
     57 H21        -5.9610    3.7350    0.1200 h1        1 MOL      0.030547
     58 H22        -8.5640    4.8410   -1.0860 hc        1 MOL      0.134826
     59 H23        -7.2820    5.7440   -0.3450 hc        1 MOL      0.134826
     60 H24        -6.5620    4.5880    2.0830 hn        1 MOL      0.355120
     61 H25        -7.8970    4.6320    3.1270 hn        1 MOL      0.355120
     62 N7         -4.8500    4.0480   -1.9620 n         1 MOL     -0.316203
     63 C20        -4.0460    4.0390   -3.1730 c3        1 MOL     -0.090222
     64 C21        -2.7740    4.9180   -2.9580 c         1 MOL      0.528010
     65 O12        -2.7920    6.0980   -3.2700 o         1 MOL     -0.531114
     66 H26        -4.3980    4.0340   -1.0540 hn        1 MOL      0.260165
     67 H27        -4.6300    4.4980   -3.9710 h1        1 MOL      0.091303
     68 H28        -3.7820    3.0270   -3.4840 h1        1 MOL      0.091303
     69 N8         -1.7760    4.3600   -2.2450 n         1 MOL     -0.435039
     70 C22        -0.5260    5.0670   -1.7830 c3        1 MOL     -0.048708
     71 C23         0.4750    3.9490   -1.5010 c         1 MOL      0.441033
     72 O13         0.1150    2.7560   -1.2240 o         1 MOL     -0.568279
     73 C24        -0.6520    5.9630   -0.4920 c3        1 MOL      0.537423
     74 C25        -1.0130    7.3720   -0.8640 c3        1 MOL     -0.411067
     75 O14        -1.4800    5.4170    0.4590 oh        1 MOL     -0.646884
     76 H29        -1.8360    3.3840   -1.9670 hn        1 MOL      0.283326
     77 H30        -0.1520    5.6610   -2.6220 h1        1 MOL      0.097245
     78 H31         0.3530    6.0430   -0.0950 h1        1 MOL     -0.053965
     79 H32        -0.9570    4.9460    1.1080 ho        1 MOL      0.415568
     80 H33        -0.3790    7.7180   -1.6780 hc        1 MOL      0.098169
     81 H34        -2.0250    7.2160   -1.2500 hc        1 MOL      0.098169
     82 H35        -1.0210    8.1110   -0.0560 hc        1 MOL      0.098169
     83 N9          1.7680    4.2120   -1.5980 n         1 MOL     -0.325002
     84 C26         2.8220    3.2430   -1.3640 c3        1 MOL      0.012889
     85 C27         3.3720    3.5180    0.0720 c         1 MOL      0.464551
     86 O15         3.4950    4.7230    0.4270 o         1 MOL     -0.562400
     87 C28         3.9720    3.3540   -2.4110 c3        1 MOL      0.139287
     88 C29         4.9910    2.2170   -2.2840 c3        1 MOL      0.266438
     89 C30         3.3550    3.3860   -3.8510 c3        1 MOL     -0.308704
     90 C31         6.2280    2.7000   -3.0590 c3        1 MOL     -0.250944
     91 H36         2.1190    5.1150   -1.8940 hn        1 MOL      0.242720
     92 H37         2.4300    2.2210   -1.3330 h1        1 MOL      0.169276
     93 H38         4.4680    4.3160   -2.2680 hc        1 MOL      0.004274
     94 H39         4.5960    1.2340   -2.5140 hc        1 MOL     -0.103658
     95 H40         5.3360    2.0710   -1.2560 hc        1 MOL     -0.103658
     96 H41         2.6870    2.5420   -4.0090 hc        1 MOL      0.062754
     97 H42         2.7540    4.2940   -3.9200 hc        1 MOL      0.062754
     98 H43         4.0300    3.3140   -4.7080 hc        1 MOL      0.062754
     99 H44         6.0620    2.5570   -4.1210 hc        1 MOL      0.045612
    100 H45         6.5770    3.7120   -2.8690 hc        1 MOL      0.045612
    101 H46         7.0180    1.9450   -2.9190 hc        1 MOL      0.045612
    102 N10         3.7080    2.4070    0.8610 n         1 MOL     -0.288363
    103 C32         4.3140    2.6440    2.2000 c3        1 MOL      0.066534
    104 C33         5.3440    1.5440    2.5170 c         1 MOL      0.513577
    105 O16         6.0120    1.5480    3.5040 o         1 MOL     -0.566231
    106 C34         3.2570    2.8370    3.3100 c3        1 MOL     -0.170965
    107 C35         2.1590    1.7230    3.3920 c         1 MOL      0.831105
    108 O17         2.5360    0.5310    3.5220 o         1 MOL     -0.786524
    109 O18         0.9600    2.0290    3.2460 o         1 MOL     -0.786524
    110 H47         3.5960    1.4550    0.5260 hn        1 MOL      0.030499
    111 H48         4.9080    3.5550    2.1770 h1        1 MOL      0.077493
    112 H49         2.8390    3.8140    3.0790 hc        1 MOL      0.040177
    113 H50         3.7270    2.9450    4.2840 hc        1 MOL      0.040177
    114 N11         5.6340    0.6150    1.5820 n         1 MOL     -0.577563
    115 C36         6.8500   -0.2770    1.3870 c3        1 MOL      0.530585
    116 C37         6.6100   -1.6660    0.6670 c         1 MOL      0.082409
    117 O19         7.1760   -1.9700   -0.3960 o         1 MOL     -0.437310
    118 C38         7.7750    0.6700    0.5130 c3        1 MOL     -0.359548
    119 C39         9.1790    0.1600    0.3560 ca        1 MOL      0.110727
    120 C40         9.9880   -0.5320    1.3680 ca        1 MOL     -0.145859
    121 C41         9.7330    0.4940   -0.8790 ca        1 MOL     -0.145859
    122 C42        11.3210   -0.8300    1.0280 ca        1 MOL     -0.139023
    123 C43        11.0340   -0.0070   -1.2300 ca        1 MOL     -0.139023
    124 C44        11.8210   -0.6760   -0.3100 ca        1 MOL     -0.110374
    125 H51         4.9310    0.5230    0.8610 hn        1 MOL      0.338186
    126 H52         7.2980   -0.5410    2.3370 h1        1 MOL     -0.004660
    127 H53         7.8360    1.6560    0.9770 hc        1 MOL      0.129957
    128 H54         7.3300    0.7420   -0.4770 hc        1 MOL      0.129957
    129 H55         9.6150   -0.6880    2.3690 ha        1 MOL      0.111824
    130 H56         9.2020    1.0290   -1.6530 ha        1 MOL      0.111824
    131 H57        11.9160   -1.3200    1.7820 ha        1 MOL      0.102817
    132 H58        11.4840    0.2880   -2.1670 ha        1 MOL      0.102817
    133 H59        12.8260   -0.9350   -0.6050 ha        1 MOL      0.095486
    134 N12         5.6130   -2.4160    1.1820 n         1 MOL      0.052399
    135 C45         5.2040   -3.7350    0.5820 c3        1 MOL      0.011693
    136 C46         4.7070   -3.6140   -0.8620 c         1 MOL      0.178404
    137 O20         4.6680   -4.5940   -1.5970 o         1 MOL     -0.478668
    138 C47         4.2500   -4.3130    1.5630 c3        1 MOL     -0.067467
    139 C48         4.5270   -3.5820    2.8820 c3        1 MOL     -0.188086
    140 C49         4.9440   -2.1720    2.3760 c3        1 MOL      0.016539
    141 H60         6.0990   -4.3560    0.5570 h1        1 MOL      0.090925
    142 H61         3.2240   -4.1380    1.2350 hc        1 MOL      0.066214
    143 H62         4.4500   -5.3810    1.6460 hc        1 MOL      0.066214
    144 H63         3.5720   -3.6830    3.4090 hc        1 MOL      0.051511
    145 H64         5.3700   -4.0490    3.3960 hc        1 MOL      0.051511
    146 H65         4.0960   -1.5140    2.1630 h1        1 MOL      0.048669
    147 H66         5.6470   -1.7580    3.1010 h1        1 MOL      0.048669
    148 N13         4.3350   -2.4360   -1.3460 n         1 MOL      0.096414
    149 C50         3.9120   -2.3610   -2.7020 c3        1 MOL     -0.284246
    150 C51         4.9810   -2.4380   -3.7620 c         1 MOL      0.539537
    151 O21         4.8230   -3.2350   -4.7100 o         1 MOL     -0.547806
    152 C52         2.9380   -1.1580   -2.9550 c3        1 MOL      0.006820
    153 C53         1.9470   -0.8420   -1.8030 c3        1 MOL     -0.045372
    154 C54         2.5670   -0.2420   -0.4930 c         1 MOL      0.375540
    155 O22         1.8280    0.0600    0.4180 o         1 MOL     -0.516359
    156 O23         3.8410   -0.0000   -0.4130 o         1 MOL     -0.516359
    157 H67         4.3860   -1.6130   -0.7590 hn        1 MOL      0.164135
    158 H68         3.3320   -3.2400   -2.9570 h1        1 MOL      0.132730
    159 H69         2.2900   -1.3870   -3.8010 hc        1 MOL      0.018008
    160 H70         3.5190   -0.2570   -3.1500 hc        1 MOL      0.018008
    161 H71         1.3190   -1.7090   -1.5970 hc        1 MOL      0.042500
    162 H72         1.2610   -0.1560   -2.3110 hc        1 MOL      0.042500
    163 N14         6.1120   -1.7200   -3.5280 n         1 MOL     -0.239412
    164 C55         7.3690   -1.8840   -4.3500 c3        1 MOL     -0.182965
    165 H73         8.2380   -1.8500   -3.6940 h1        1 MOL      0.088522
    166 H74         7.3430   -2.8440   -4.8680 h1        1 MOL      0.088522
    167 H75         7.4330   -1.0780   -5.0810 h1        1 MOL      0.088522
    168 H76         6.1330   -1.2210   -2.6490 hn        1 MOL      0.221475
    169 Ca1         0.2480   -0.4290    2.6060 Ca        1 MOL      1.731353
    170 O24        -0.9250    1.0660    0.7990 oh        1 MOL     -0.810778
    171 O25        -0.2850   -2.4690    0.8690 oh        1 MOL     -0.810778
    172 H77        -1.5850    1.7480    0.6330 ho        1 MOL      0.401732
    173 H78        -0.7690   -2.0650    0.1530 ho        1 MOL      0.401732
    174 H79        -0.1220    1.4080    0.4190 ho        1 MOL      0.401732
    175 H80        -0.7380   -3.2910    1.0410 ho        1 MOL      0.401732
    176 O26         0.9640   -3.0060    3.3730 oh        1 MOL     -0.810778
    177 H81         1.0590   -3.3660    4.2570 ho        1 MOL      0.401732
    178 H82         0.8090   -3.7760    2.8230 ho        1 MOL      0.401732
    179 O27         0.2360   -0.1510    5.4470 oh        1 MOL     -0.810778
    180 H83         1.0720    0.0390    5.8840 ho        1 MOL      0.401732
    181 H84        -0.2290   -0.7240    6.0640 ho        1 MOL      0.401732
@<TRIPOS>BOND
     1    1    2 1   
     2    1    4 1   
     3    1    5 1   
     4    1    6 1   
     5    2    3 2   
     6    2    7 1   
     7    7    8 1   
     8    7   15 1   
     9    8    9 1   
    10    8   11 1   
    11    8   16 1   
    12    9   10 2   
    13    9   19 1   
    14   11   12 1   
    15   11   17 1   
    16   11   18 1   
    17   12   13 1   
    18   12   14 1   
    19   19   20 1   
    20   19   24 1   
    21   20   21 1   
    22   20   23 1   
    23   20   25 1   
    24   21   22 2   
    25   21   29 1   
    26   23   26 1   
    27   23   27 1   
    28   23   28 1   
    29   29   30 1   
    30   29   37 1   
    31   30   31 1   
    32   30   33 1   
    33   30   38 1   
    34   31   32 2   
    35   31   41 1   
    36   33   34 1   
    37   33   39 1   
    38   33   40 1   
    39   34   35 1   
    40   34   36 1   
    41   41   42 1   
    42   41   45 1   
    43   42   43 1   
    44   42   46 1   
    45   42   47 1   
    46   43   44 2   
    47   43   48 1   
    48   48   49 1   
    49   48   56 1   
    50   49   50 1   
    51   49   52 1   
    52   49   57 1   
    53   50   51 2   
    54   50   62 1   
    55   52   53 1   
    56   52   58 1   
    57   52   59 1   
    58   53   54 1   
    59   53   55 2   
    60   54   60 1   
    61   54   61 1   
    62   62   63 1   
    63   62   66 1   
    64   63   64 1   
    65   63   67 1   
    66   63   68 1   
    67   64   65 2   
    68   64   69 1   
    69   69   70 1   
    70   69   76 1   
    71   70   71 1   
    72   70   73 1   
    73   70   77 1   
    74   71   72 2   
    75   71   83 1   
    76   73   74 1   
    77   73   75 1   
    78   73   78 1   
    79   74   80 1   
    80   74   81 1   
    81   74   82 1   
    82   75   79 1   
    83   83   84 1   
    84   83   91 1   
    85   84   85 1   
    86   84   87 1   
    87   84   92 1   
    88   85   86 2   
    89   85  102 1   
    90   87   88 1   
    91   87   89 1   
    92   87   93 1   
    93   88   90 1   
    94   88   94 1   
    95   88   95 1   
    96   89   96 1   
    97   89   97 1   
    98   89   98 1   
    99   90   99 1   
   100   90  100 1   
   101   90  101 1   
   102  102  103 1   
   103  102  110 1   
   104  103  104 1   
   105  103  106 1   
   106  103  111 1   
   107  104  105 2   
   108  104  114 1   
   109  106  107 1   
   110  106  112 1   
   111  106  113 1   
   112  107  108 1   
   113  107  109 1   
   114  114  115 1   
   115  114  125 1   
   116  115  116 1   
   117  115  118 1   
   118  115  126 1   
   119  116  117 2   
   120  116  134 1   
   121  118  119 1   
   122  118  127 1   
   123  118  128 1   
   124  119  120 ar  
   125  119  121 ar  
   126  120  122 ar  
   127  120  129 1   
   128  121  123 ar  
   129  121  130 1   
   130  122  124 ar  
   131  122  131 1   
   132  123  124 ar  
   133  123  132 1   
   134  124  133 1   
   135  134  135 1   
   136  134  140 1   
   137  135  136 1   
   138  135  138 1   
   139  135  141 1   
   140  136  137 2   
   141  136  148 1   
   142  138  139 1   
   143  138  142 1   
   144  138  143 1   
   145  139  140 1   
   146  139  144 1   
   147  139  145 1   
   148  140  146 1   
   149  140  147 1   
   150  148  149 1   
   151  148  157 1   
   152  149  150 1   
   153  149  152 1   
   154  149  158 1   
   155  150  151 2   
   156  150  163 1   
   157  152  153 1   
   158  152  159 1   
   159  152  160 1   
   160  153  154 1   
   161  153  161 1   
   162  153  162 1   
   163  154  155 1   
   164  154  156 1   
   165  163  164 1   
   166  163  168 1   
   167  164  165 1   
   168  164  166 1   
   169  164  167 1   
   170  170  172 1   
   171  170  174 1   
   172  171  173 1   
   173  171  175 1   
   174  176  177 1   
   175  176  178 1   
   176  179  180 1   
   177  179  181 1   
@<TRIPOS>SUBSTRUCTURE
     1 MOL         1 TEMP              0 ****  ****    0 ROOT
