@<TRIPOS>MOLECULE
MOL
  192   187     1     0     0
SMALL
resp


@<TRIPOS>ATOM
      1 C1         -5.3990   -1.6700    6.3550 c3        1 MOL     -0.455704
      2 C2         -5.1380   -1.4830    4.8560 c         1 MOL      0.789159
      3 O1         -4.8160   -2.3450    4.1390 o         1 MOL     -0.591567
      4 H1         -5.8900   -0.7810    6.7510 hc        1 MOL      0.113830
      5 H2         -6.0420   -2.5370    6.5070 hc        1 MOL      0.113830
      6 H3         -4.4520   -1.8230    6.8730 hc        1 MOL      0.113830
      7 N1         -5.2730   -0.2370    4.3100 n         1 MOL     -0.486090
      8 C3         -5.0860    0.1380    2.8820 c3        1 MOL     -0.210501
      9 C4         -3.5510    0.1910    2.4150 c         1 MOL      0.114366
     10 O2         -3.3160    0.5070    1.2300 o         1 MOL     -0.171630
     11 C5         -5.8070    1.5050    2.5840 c3        1 MOL     -0.041767
     12 C6         -5.6080    2.6080    3.6180 c         1 MOL      0.675003
     13 O3         -5.1040    3.6650    3.1600 o         1 MOL     -0.697496
     14 O4         -6.1080    2.4180    4.7510 o         1 MOL     -0.697496
     15 H4         -5.4910    0.5530    4.9070 hn        1 MOL      0.265114
     16 H5         -5.5600   -0.6470    2.3020 h1        1 MOL      0.221237
     17 H6         -6.8860    1.3930    2.4770 hc        1 MOL      0.039762
     18 H7         -5.5580    1.8620    1.5860 hc        1 MOL      0.039762
     19 N2         -2.5750   -0.0280    3.3250 n         1 MOL     -0.205670
     20 C7         -1.0910    0.1510    2.9760 c3        1 MOL      0.247674
     21 C8         -0.4110   -1.1860    3.1600 c         1 MOL      0.412691
     22 O5         -0.3890   -1.6700    4.3260 o         1 MOL     -0.534941
     23 C9         -0.5390    1.2170    3.8500 c3        1 MOL     -0.248926
     24 C10        -1.0830    2.6050    3.5740 c3        1 MOL     -0.267486
     25 C11        -0.4320    3.5150    4.7010 c3        1 MOL     -0.042326
     26 C12        -0.4940    4.9630    4.3000 c3        1 MOL     -0.128195
     27 N3         -1.4370    5.6710    5.1920 n4        1 MOL     -0.212855
     28 H8         -2.9300   -0.3130    4.2290 hn        1 MOL      0.233960
     29 H9         -0.9400    0.5280    1.9640 h1        1 MOL      0.062814
     30 H10         0.5480    1.0960    3.8510 hc        1 MOL      0.100333
     31 H11        -0.8230    1.0700    4.8940 hc        1 MOL      0.100333
     32 H12        -2.1450    2.8300    3.4660 hc        1 MOL      0.152666
     33 H13        -0.6400    2.8800    2.6170 hc        1 MOL      0.152666
     34 H14         0.6360    3.2900    4.7670 hc        1 MOL      0.065944
     35 H15        -0.8670    3.3480    5.6910 hc        1 MOL      0.065944
     36 H16        -0.9370    5.0580    3.3060 hx        1 MOL      0.135931
     37 H17         0.5080    5.3860    4.3100 hx        1 MOL      0.135931
     38 H18        -2.3790    5.3160    5.2240 hn        1 MOL      0.283680
     39 H19        -1.1340    5.5690    6.1470 hn        1 MOL      0.283680
     40 H20        -1.5960    6.6640    5.0490 hn        1 MOL      0.283680
     41 N4          0.3730   -1.6670    2.1910 n         1 MOL     -0.281757
     42 C13         0.9020   -1.2090    0.8690 c3        1 MOL     -0.059723
     43 C14         1.6890    0.1390    1.1230 c         1 MOL      0.274274
     44 O6          1.0610    1.2050    1.0530 o         1 MOL     -0.527936
     45 C15        -0.1900   -1.0330   -0.2320 c3        1 MOL     -0.019213
     46 C16        -0.4370   -2.3780   -0.9730 c         1 MOL      0.531631
     47 O7         -0.0200   -3.4720   -0.5300 o         1 MOL     -0.727231
     48 O8         -0.7960   -2.4680   -2.1870 o         1 MOL     -0.727231
     49 H21         0.7480   -2.5800    2.3810 hn        1 MOL      0.249417
     50 H22         1.5700   -1.9750    0.4860 h1        1 MOL      0.068918
     51 H23         0.1800   -0.2960   -0.9410 hc        1 MOL      0.061355
     52 H24        -1.1490   -0.6840    0.1540 hc        1 MOL      0.061355
     53 N5          2.9290    0.2040    1.5660 n         1 MOL     -0.242207
     54 C17         3.6770   -0.9430    2.0680 c3        1 MOL      0.067020
     55 C18         4.8890   -0.5890    2.9340 c         1 MOL      0.516430
     56 O9          4.8500    0.4670    3.5180 o         1 MOL     -0.529728
     57 H25         3.3190    1.1210    1.7460 hn        1 MOL      0.293182
     58 H26         4.1080   -1.5680    1.2860 h1        1 MOL      0.026025
     59 H27         3.0620   -1.5440    2.7410 h1        1 MOL      0.026025
     60 N6          5.9340   -1.4370    3.1370 n         1 MOL     -0.417377
     61 C19         6.2710   -2.8000    2.7000 c3        1 MOL      0.044634
     62 C20         6.7290   -2.8190    1.1830 c         1 MOL      0.418791
     63 O10         7.5170   -1.9860    0.7180 o         1 MOL     -0.425508
     64 C21         7.2640   -3.4620    3.6460 c3        1 MOL     -0.199607
     65 C22         8.5980   -2.7310    3.7900 c         1 MOL      0.733534
     66 O11         8.8280   -1.9590    4.7020 o         1 MOL     -0.640644
     67 O12         9.5490   -3.0650    3.0300 o         1 MOL     -0.640644
     68 H28         6.6370   -1.0670    3.7510 hn        1 MOL      0.284598
     69 H29         5.4000   -3.4590    2.7360 h1        1 MOL      0.021761
     70 H30         7.4150   -4.4760    3.2820 hc        1 MOL      0.050441
     71 H31         6.8300   -3.6220    4.6300 hc        1 MOL      0.050441
     72 N7          6.2890   -3.8580    0.4300 n         1 MOL     -0.371486
     73 C23         6.6260   -3.9390   -1.0440 c3        1 MOL     -0.404313
     74 C24         5.8740   -2.8930   -1.8990 c         1 MOL      0.448668
     75 O13         6.2720   -2.8850   -3.0820 o         1 MOL     -0.570245
     76 H32         5.8420   -4.6820    0.8180 hn        1 MOL      0.267919
     77 H33         6.5550   -4.9360   -1.4940 h1        1 MOL      0.218160
     78 H34         7.6950   -3.7320   -1.1040 h1        1 MOL      0.218160
     79 N8          5.0920   -1.9590   -1.4070 n         1 MOL     -0.108624
     80 C25         4.6800   -0.7220   -2.0530 c3        1 MOL      0.144508
     81 C26         5.1220    0.6040   -1.3370 c         1 MOL      0.256130
     82 O14         5.4940    0.5320   -0.1600 o         1 MOL     -0.412471
     83 C27         3.1580   -0.7860   -2.1620 c3        1 MOL      0.373624
     84 C28         2.7410   -1.9450   -3.0370 c3        1 MOL     -0.693522
     85 O15         2.5910    0.3670   -2.6980 oh        1 MOL     -0.544705
     86 H35         4.6430   -2.1600   -0.5250 hn        1 MOL      0.072448
     87 H36         5.0060   -0.7270   -3.1030 h1        1 MOL      0.040491
     88 H37         2.7350   -0.8840   -1.1580 h1        1 MOL      0.135065
     89 H38         2.0210    0.7100   -2.0040 ho        1 MOL      0.180385
     90 H39         3.1770   -1.7130   -4.0080 hc        1 MOL      0.184493
     91 H40         3.0000   -2.8990   -2.5830 hc        1 MOL      0.184493
     92 H41         1.6640   -1.9640   -3.1680 hc        1 MOL      0.184493
     93 N9          5.2100    1.7100   -2.0720 n         1 MOL     -0.262902
     94 C29         5.5600    3.0550   -1.4820 c3        1 MOL      0.016080
     95 C30         4.3020    3.5960   -0.8830 c         1 MOL      0.387110
     96 O16         4.2800    4.3400    0.1050 o         1 MOL     -0.506733
     97 C31         6.2210    3.8330   -2.6110 c3        1 MOL      0.197020
     98 C32         7.5430    3.1560   -3.1340 c3        1 MOL     -0.017769
     99 C33         6.4350    5.2700   -2.1770 c3        1 MOL     -0.192390
    100 C34         8.6210    2.8600   -2.0370 c3        1 MOL     -0.150544
    101 H42         5.0540    1.6010   -3.0660 hn        1 MOL      0.235927
    102 H43         6.2250    2.9430   -0.6300 h1        1 MOL      0.084504
    103 H44         5.5650    3.8770   -3.4810 hc        1 MOL     -0.042490
    104 H45         7.9710    3.8750   -3.8420 hc        1 MOL     -0.002554
    105 H46         7.3140    2.2630   -3.7070 hc        1 MOL     -0.002554
    106 H47         7.0540    5.2620   -1.2840 hc        1 MOL      0.045663
    107 H48         6.9770    5.7910   -2.9640 hc        1 MOL      0.045663
    108 H49         5.4910    5.7960   -2.0150 hc        1 MOL      0.045663
    109 H50         8.2210    2.0850   -1.3880 hc        1 MOL      0.053747
    110 H51         9.5360    2.4620   -2.4710 hc        1 MOL      0.053747
    111 H52         9.0270    3.7310   -1.5120 hc        1 MOL      0.053747
    112 N10         3.1780    3.3830   -1.5700 n         1 MOL     -0.190188
    113 C35         1.9120    4.2350   -1.4310 c3        1 MOL      0.096213
    114 C36         0.6770    3.2970   -1.3270 c         1 MOL      0.403550
    115 O17         0.7870    2.0900   -1.6760 o         1 MOL     -0.309732
    116 C37         1.7780    5.3050   -2.5570 c3        1 MOL      0.261739
    117 C38         1.9680    4.8860   -3.9890 c3        1 MOL     -0.265497
    118 O18         2.8250    6.2820   -2.4300 oh        1 MOL     -0.661948
    119 H53         3.2450    2.7100   -2.3190 hn        1 MOL      0.145006
    120 H54         1.9390    4.7090   -0.4570 h1        1 MOL      0.073084
    121 H55         0.7980    5.7870   -2.4190 h1        1 MOL      0.011599
    122 H56         2.8570    6.9300   -3.1370 ho        1 MOL      0.416449
    123 H57         1.3700    3.9830   -4.1250 hc        1 MOL      0.072794
    124 H58         1.6390    5.6070   -4.7310 hc        1 MOL      0.072794
    125 H59         3.0150    4.6490   -4.1680 hc        1 MOL      0.072794
    126 N11        -0.4540    3.8110   -0.9390 n         1 MOL     -0.467851
    127 C39        -1.5600    3.0290   -0.4160 c3        1 MOL     -0.052747
    128 C40        -2.4100    2.4550   -1.5430 c         1 MOL      0.463909
    129 O19        -2.3930    2.9820   -2.6260 o         1 MOL     -0.521228
    130 C41        -2.4540    3.8500    0.5860 c3        1 MOL      0.455984
    131 C42        -3.5180    4.6720   -0.2040 c3        1 MOL     -0.505878
    132 O20        -1.7180    4.7340    1.2750 oh        1 MOL     -0.616989
    133 H60        -0.4630    4.8090   -0.8120 hn        1 MOL      0.273285
    134 H61        -1.1490    2.1960    0.1610 h1        1 MOL      0.105265
    135 H62        -2.8920    3.2280    1.3680 h1        1 MOL      0.034712
    136 H63        -1.5280    5.4870    0.7060 ho        1 MOL      0.366788
    137 H64        -3.8580    5.5440    0.3610 hc        1 MOL      0.126432
    138 H65        -3.0950    5.0080   -1.1500 hc        1 MOL      0.126432
    139 H66        -4.3530    4.0190   -0.4200 hc        1 MOL      0.126432
    140 N12        -3.3580    1.4520   -1.3780 n         1 MOL     -0.366697
    141 C43        -4.4200    0.9800   -2.3070 c3        1 MOL      0.063019
    142 C44        -4.8450   -0.5130   -2.1820 c         1 MOL      0.506149
    143 O21        -5.1890   -1.1460   -3.1840 o         1 MOL     -0.551439
    144 C45        -5.6070    2.0830   -2.2150 c3        1 MOL     -0.144657
    145 C46        -6.9670    1.8240   -2.9100 c3        1 MOL     -0.026121
    146 C47        -6.9660    1.7900   -4.4920 c3        1 MOL     -0.190070
    147 C48        -6.8240    3.2100   -4.9940 c3        1 MOL      0.218353
    148 N13        -6.7490    3.2760   -6.4420 n4        1 MOL     -0.380199
    149 H67        -3.4750    1.1620   -0.4150 hn        1 MOL      0.106213
    150 H68        -4.1260    0.9670   -3.3600 h1        1 MOL      0.098656
    151 H69        -5.3120    3.0820   -2.5130 hc        1 MOL      0.057289
    152 H70        -5.8960    2.1160   -1.1690 hc        1 MOL      0.057289
    153 H71        -7.7330    2.5520   -2.6100 hc        1 MOL      0.048218
    154 H72        -7.1940    0.8620   -2.4540 hc        1 MOL      0.048218
    155 H73        -7.8930    1.3000   -4.7680 hc        1 MOL      0.068048
    156 H74        -6.0580    1.3140   -4.8460 hc        1 MOL      0.068048
    157 H75        -5.9030    3.6440   -4.6030 hx        1 MOL      0.038105
    158 H76        -7.5910    3.8590   -4.5850 hx        1 MOL      0.038105
    159 H77        -7.6460    3.0540   -6.8500 hn        1 MOL      0.273266
    160 H78        -6.3990    4.1710   -6.7650 hn        1 MOL      0.273266
    161 H79        -6.1330    2.5710   -6.8120 hn        1 MOL      0.273266
    162 N14        -4.8060   -1.1160   -0.9390 n         1 MOL     -0.113885
    163 C49        -5.1350   -2.5130   -0.6900 c3        1 MOL     -0.280358
    164 C50        -6.5830   -2.5390   -0.0700 c         1 MOL      0.445894
    165 O22        -6.9390   -1.6550    0.6990 o         1 MOL     -0.482190
    166 C51        -4.1910   -3.1280    0.3840 c3        1 MOL      0.371639
    167 C52        -4.3440   -4.6480    0.5170 c3        1 MOL     -0.083942
    168 C53        -3.9160   -5.3680   -0.7690 c         1 MOL      0.571687
    169 O23        -2.8280   -5.1380   -1.3130 o         1 MOL     -0.710555
    170 O24        -4.7030   -6.2480   -1.2300 o         1 MOL     -0.710555
    171 H80        -4.5220   -0.5580   -0.1420 hn        1 MOL      0.066225
    172 H81        -5.1290   -3.0220   -1.6590 h1        1 MOL      0.182274
    173 H82        -4.3530   -2.5940    1.3240 hc        1 MOL     -0.075672
    174 H83        -3.1610   -2.9790    0.0700 hc        1 MOL     -0.075672
    175 H84        -5.3950   -4.8580    0.7370 hc        1 MOL      0.021632
    176 H85        -3.7000   -5.0010    1.3160 hc        1 MOL      0.021632
    177 N15        -7.4900   -3.4660   -0.4020 n         1 MOL     -0.354031
    178 C54        -8.9170   -3.5050   -0.0280 c3        1 MOL     -0.071256
    179 H86        -9.2830   -2.4880    0.1100 h1        1 MOL      0.069983
    180 H87        -9.4870   -3.9910   -0.8200 h1        1 MOL      0.069983
    181 H88        -9.0350   -4.0630    0.9010 h1        1 MOL      0.069983
    182 H89        -7.1960   -4.2860   -0.9170 hn        1 MOL      0.276776
    183 Ca1        -0.5830   -5.1610   -2.5000 Ca        1 MOL      1.691329
    184 O25        -2.5680   -5.3100   -4.4920 oh        1 MOL     -0.804716
    185 H90        -3.4740   -5.1180   -4.7350 ho        1 MOL      0.404484
    186 H91        -2.4070   -6.1960   -4.8150 ho        1 MOL      0.404484
    187 O26         2.0350   -6.1220   -2.3690 oh        1 MOL     -0.804716
    188 H92         2.4620   -6.8360   -1.8860 ho        1 MOL      0.404484
    189 H93         2.7520   -5.6860   -2.8250 ho        1 MOL      0.404484
    190 O27         0.3380   -4.1950   -4.7280 oh        1 MOL     -0.804716
    191 H94         0.6820   -4.9960   -5.1380 ho        1 MOL      0.404484
    192 H95         0.1750   -3.6080   -5.4580 ho        1 MOL      0.404484
@<TRIPOS>BOND
     1    1    2 1   
     2    1    4 1   
     3    1    5 1   
     4    1    6 1   
     5    2    3 2   
     6    2    7 1   
     7    7    8 1   
     8    7   15 1   
     9    8    9 1   
    10    8   11 1   
    11    8   16 1   
    12    9   10 2   
    13    9   19 1   
    14   11   12 1   
    15   11   17 1   
    16   11   18 1   
    17   12   13 1   
    18   12   14 1   
    19   19   20 1   
    20   19   28 1   
    21   20   21 1   
    22   20   23 1   
    23   20   29 1   
    24   21   22 2   
    25   21   41 1   
    26   23   24 1   
    27   23   30 1   
    28   23   31 1   
    29   24   25 1   
    30   24   32 1   
    31   24   33 1   
    32   25   26 1   
    33   25   34 1   
    34   25   35 1   
    35   26   27 1   
    36   26   36 1   
    37   26   37 1   
    38   27   38 1   
    39   27   39 1   
    40   27   40 1   
    41   41   42 1   
    42   41   49 1   
    43   42   43 1   
    44   42   45 1   
    45   42   50 1   
    46   43   44 2   
    47   43   53 1   
    48   45   46 1   
    49   45   51 1   
    50   45   52 1   
    51   46   47 1   
    52   46   48 1   
    53   53   54 1   
    54   53   57 1   
    55   54   55 1   
    56   54   58 1   
    57   54   59 1   
    58   55   56 2   
    59   55   60 1   
    60   60   61 1   
    61   60   68 1   
    62   61   62 1   
    63   61   64 1   
    64   61   69 1   
    65   62   63 2   
    66   62   72 1   
    67   64   65 1   
    68   64   70 1   
    69   64   71 1   
    70   65   66 1   
    71   65   67 1   
    72   72   73 1   
    73   72   76 1   
    74   73   74 1   
    75   73   77 1   
    76   73   78 1   
    77   74   75 2   
    78   74   79 1   
    79   79   80 1   
    80   79   86 1   
    81   80   81 1   
    82   80   83 1   
    83   80   87 1   
    84   81   82 2   
    85   81   93 1   
    86   83   84 1   
    87   83   85 1   
    88   83   88 1   
    89   84   90 1   
    90   84   91 1   
    91   84   92 1   
    92   85   89 1   
    93   93   94 1   
    94   93  101 1   
    95   94   95 1   
    96   94   97 1   
    97   94  102 1   
    98   95   96 2   
    99   95  112 1   
   100   97   98 1   
   101   97   99 1   
   102   97  103 1   
   103   98  100 1   
   104   98  104 1   
   105   98  105 1   
   106   99  106 1   
   107   99  107 1   
   108   99  108 1   
   109  100  109 1   
   110  100  110 1   
   111  100  111 1   
   112  112  113 1   
   113  112  119 1   
   114  113  114 1   
   115  113  116 1   
   116  113  120 1   
   117  114  115 2   
   118  114  126 1   
   119  116  117 1   
   120  116  118 1   
   121  116  121 1   
   122  117  123 1   
   123  117  124 1   
   124  117  125 1   
   125  118  122 1   
   126  126  127 1   
   127  126  133 1   
   128  127  128 1   
   129  127  130 1   
   130  127  134 1   
   131  128  129 2   
   132  128  140 1   
   133  130  131 1   
   134  130  132 1   
   135  130  135 1   
   136  131  137 1   
   137  131  138 1   
   138  131  139 1   
   139  132  136 1   
   140  140  141 1   
   141  140  149 1   
   142  141  142 1   
   143  141  144 1   
   144  141  150 1   
   145  142  143 2   
   146  142  162 1   
   147  144  145 1   
   148  144  151 1   
   149  144  152 1   
   150  145  146 1   
   151  145  153 1   
   152  145  154 1   
   153  146  147 1   
   154  146  155 1   
   155  146  156 1   
   156  147  148 1   
   157  147  157 1   
   158  147  158 1   
   159  148  159 1   
   160  148  160 1   
   161  148  161 1   
   162  162  163 1   
   163  162  171 1   
   164  163  164 1   
   165  163  166 1   
   166  163  172 1   
   167  164  165 2   
   168  164  177 1   
   169  166  167 1   
   170  166  173 1   
   171  166  174 1   
   172  167  168 1   
   173  167  175 1   
   174  167  176 1   
   175  168  169 1   
   176  168  170 1   
   177  177  178 1   
   178  177  182 1   
   179  178  179 1   
   180  178  180 1   
   181  178  181 1   
   182  184  185 1   
   183  184  186 1   
   184  187  188 1   
   185  187  189 1   
   186  190  191 1   
   187  190  192 1   
@<TRIPOS>SUBSTRUCTURE
     1 MOL         1 TEMP              0 ****  ****    0 ROOT
