@<TRIPOS>MOLECULE
MOL
  181   177     1     0     0
SMALL
resp


@<TRIPOS>ATOM
      1 C1         -9.6820   -3.5440    5.0360 c3        1 MOL     -0.447334
      2 C2         -9.6280   -2.1490    4.2920 c         1 MOL      0.830030
      3 O1         -9.7640   -1.1550    4.9740 o         1 MOL     -0.638016
      4 H1        -10.4470   -4.1710    4.5770 hc        1 MOL      0.112466
      5 H2         -8.7140   -4.0370    4.9550 hc        1 MOL      0.112466
      6 H3         -9.9240   -3.3870    6.0860 hc        1 MOL      0.112466
      7 N1         -9.4310   -2.0610    3.0430 n         1 MOL     -0.674347
      8 C3         -8.8820   -3.0910    2.0890 c3        1 MOL      0.049935
      9 C4         -9.4030   -2.8840    0.6040 c         1 MOL      0.489136
     10 O2         -9.1510   -3.7260   -0.2660 o         1 MOL     -0.557278
     11 C5         -7.3440   -3.2060    2.2420 c3        1 MOL     -0.241880
     12 C6         -6.6610   -1.8720    2.0020 c         1 MOL      0.751387
     13 O3         -5.5750   -1.7020    2.5840 o         1 MOL     -0.683223
     14 O4         -7.1290   -0.9700    1.3150 o         1 MOL     -0.683223
     15 H4         -9.6430   -1.1250    2.7080 hn        1 MOL      0.304519
     16 H5         -9.1640   -4.1010    2.3750 h1        1 MOL      0.085791
     17 H6         -6.9160   -3.9800    1.6120 hc        1 MOL      0.087799
     18 H7         -7.1180   -3.4910    3.2700 hc        1 MOL      0.087799
     19 N2        -10.0940   -1.8160    0.2940 n         1 MOL     -0.437766
     20 C7        -10.4870   -1.4980   -1.0650 c3        1 MOL      0.282155
     21 C8         -9.2640   -1.2430   -1.9730 c         1 MOL      0.242422
     22 O5         -9.3830   -1.3100   -3.2280 o         1 MOL     -0.566757
     23 C9        -11.4360   -0.3500   -1.0140 c3        1 MOL     -0.424374
     24 H8        -10.1360   -1.0710    0.9790 hn        1 MOL      0.294557
     25 H9        -11.0570   -2.3550   -1.4280 h1        1 MOL      0.072572
     26 H10       -11.6970   -0.1180   -2.0480 hc        1 MOL      0.117968
     27 H11       -12.3640   -0.6770   -0.5360 hc        1 MOL      0.117968
     28 H12       -10.9560    0.5750   -0.7020 hc        1 MOL      0.117968
     29 N3         -8.0990   -1.0190   -1.4620 n         1 MOL      0.173113
     30 C10        -6.8430   -0.8070   -2.1350 c3        1 MOL     -0.021829
     31 C11        -5.5790   -1.3030   -1.3660 c         1 MOL      0.205077
     32 O6         -4.8220   -0.5440   -0.7630 o         1 MOL     -0.424887
     33 C12        -6.6960    0.6520   -2.5830 c3        1 MOL      0.210335
     34 C13        -7.1320    1.6280   -1.4910 c         1 MOL      0.643946
     35 O7         -7.5700    2.7490   -1.8420 o         1 MOL     -0.727138
     36 O8         -6.9700    1.3630   -0.2550 o         1 MOL     -0.727138
     37 H13        -7.9990   -0.9750   -0.4610 hn        1 MOL     -0.010947
     38 H14        -6.9290   -1.3550   -3.0700 h1        1 MOL      0.037241
     39 H15        -7.3810    0.7870   -3.4150 hc        1 MOL     -0.059055
     40 H16        -5.6930    0.9210   -2.9190 hc        1 MOL     -0.059055
     41 N4         -5.4320   -2.6580   -1.1890 n         1 MOL     -0.411419
     42 C14        -4.2750   -3.3230   -0.5660 c3        1 MOL     -0.109858
     43 C15        -2.8990   -2.8240   -1.0190 c         1 MOL      0.634420
     44 O9         -1.9700   -3.2970   -0.3630 o         1 MOL     -0.534413
     45 H17        -6.1980   -3.2860   -1.4150 hn        1 MOL      0.318268
     46 H18        -4.3180   -4.3820   -0.8050 h1        1 MOL      0.100230
     47 H19        -4.3070   -3.2380    0.5190 h1        1 MOL      0.100230
     48 N5         -2.7160   -1.9320   -2.0000 n         1 MOL     -0.609037
     49 C16        -1.4610   -1.3270   -2.4870 c3        1 MOL      0.053243
     50 C17        -1.6420    0.2510   -2.8300 c         1 MOL      0.407350
     51 O10        -0.6930    0.8900   -3.3120 o         1 MOL     -0.504674
     52 C18        -0.9490   -2.0490   -3.6870 c3        1 MOL     -0.141605
     53 C19        -0.5860   -3.4640   -3.3130 c         1 MOL      0.580241
     54 N6          0.5790   -3.7000   -2.7710 n         1 MOL     -0.690960
     55 O11        -1.3090   -4.4700   -3.5760 o         1 MOL     -0.636211
     56 H20        -3.5390   -1.6940   -2.5370 hn        1 MOL      0.356281
     57 H21        -0.7210   -1.4070   -1.6920 h1        1 MOL      0.174180
     58 H22        -0.0580   -1.5650   -4.1000 hc        1 MOL      0.050781
     59 H23        -1.7630   -2.0900   -4.4160 hc        1 MOL      0.050781
     60 H24         1.1200   -2.8650   -2.6120 hn        1 MOL      0.359975
     61 H25         0.7930   -4.6220   -2.4320 hn        1 MOL      0.359975
     62 N7         -2.7710    0.8180   -2.5340 n         1 MOL     -0.231555
     63 C20        -3.0330    2.2510   -2.5390 c3        1 MOL     -0.132664
     64 C21        -3.0400    2.8100   -1.1110 c         1 MOL      0.675011
     65 O12        -3.6780    2.2710   -0.2040 o         1 MOL     -0.698181
     66 H26        -3.4990    0.1920   -2.2330 hn        1 MOL      0.220067
     67 H27        -3.9690    2.4220   -3.0660 h1        1 MOL      0.105926
     68 H28        -2.2310    2.7670   -3.0520 h1        1 MOL      0.105926
     69 N8         -2.3210    3.9370   -0.7770 n         1 MOL     -0.400723
     70 C22        -1.3820    4.7150   -1.6280 c3        1 MOL     -0.141484
     71 C23         0.0720    4.3770   -1.5830 c         1 MOL      0.593816
     72 O13         0.7580    4.4770   -2.5980 o         1 MOL     -0.551375
     73 C24        -1.5550    6.1940   -1.2740 c3        1 MOL      0.175362
     74 C25        -2.8870    6.7510   -1.7950 c3        1 MOL     -0.405949
     75 O14        -1.4910    6.3900    0.1460 oh        1 MOL     -0.610269
     76 H29        -2.3140    4.2400    0.1900 hn        1 MOL      0.299745
     77 H30        -1.7140    4.6760   -2.6660 h1        1 MOL      0.123020
     78 H31        -0.7730    6.7460   -1.7990 h1        1 MOL      0.074406
     79 H32        -1.5380    7.3360    0.2420 ho        1 MOL      0.417843
     80 H33        -3.7040    6.1640   -1.3830 hc        1 MOL      0.112546
     81 H34        -3.0210    7.7810   -1.4450 hc        1 MOL      0.112546
     82 H35        -2.9540    6.6740   -2.8790 hc        1 MOL      0.112546
     83 N9          0.5090    3.9120   -0.3800 n         1 MOL     -0.335812
     84 C26         1.9360    3.5710   -0.0940 c3        1 MOL      0.063551
     85 C27         1.8980    2.2020    0.6300 c         1 MOL      0.405609
     86 O15         1.0340    1.9520    1.4790 o         1 MOL     -0.500234
     87 C28         2.6120    4.6670    0.7430 c3        1 MOL     -0.099914
     88 C29         2.9050    5.9300   -0.1880 c3        1 MOL      0.025058
     89 C30         3.9190    4.1350    1.3640 c3        1 MOL      0.013576
     90 C31         3.8650    5.7740   -1.4420 c3        1 MOL     -0.058091
     91 H36        -0.2260    3.7370    0.2820 hn        1 MOL      0.216422
     92 H37         2.4790    3.4910   -1.0360 h1        1 MOL      0.128749
     93 H38         1.9950    5.1660    1.4860 hc        1 MOL      0.029313
     94 H39         3.3710    6.7060    0.4180 hc        1 MOL     -0.006650
     95 H40         1.9730    6.3250   -0.5960 hc        1 MOL     -0.006650
     96 H41         3.6830    3.4220    2.1590 hc        1 MOL      0.026917
     97 H42         4.5830    3.7040    0.6150 hc        1 MOL      0.026917
     98 H43         4.4750    4.9300    1.8590 hc        1 MOL      0.026917
     99 H44         3.3470    5.6230   -2.3860 hc        1 MOL      0.008655
    100 H45         4.4880    6.6590   -1.5060 hc        1 MOL      0.008655
    101 H46         4.4920    4.8760   -1.3980 hc        1 MOL      0.008655
    102 N10         2.7430    1.1880    0.2830 n         1 MOL     -0.417384
    103 C32         3.7500    1.0320   -0.7600 c3        1 MOL      0.091396
    104 C33         4.9060   -0.0000   -0.5200 c         1 MOL      0.597330
    105 O16         4.6210   -0.9520    0.2510 o         1 MOL     -0.489858
    106 C34         3.0690    0.5180   -2.0850 c3        1 MOL     -0.343092
    107 C35         2.3110   -0.8590   -1.9100 c         1 MOL      0.752067
    108 O17         2.6660   -1.8350   -2.6220 o         1 MOL     -0.691963
    109 O18         1.4180   -1.0550   -1.0280 o         1 MOL     -0.691963
    110 H47         2.5610    0.3130    0.7520 hn        1 MOL      0.303078
    111 H48         4.1640    2.0200   -0.9720 h1        1 MOL      0.067560
    112 H49         3.9510    0.4470   -2.7310 hc        1 MOL      0.068443
    113 H50         2.4100    1.3110   -2.4450 hc        1 MOL      0.068443
    114 N11         6.0980    0.0910   -1.1550 n         1 MOL     -0.634066
    115 C36         7.2100   -0.8040   -1.2360 c3        1 MOL      0.629433
    116 C37         8.5550   -0.1100   -0.9780 c         1 MOL     -0.020805
    117 O19         8.7870    1.0300   -1.4570 o         1 MOL     -0.472932
    118 C38         7.2570   -1.5260   -2.6170 c3        1 MOL     -0.196307
    119 C39         8.2480   -2.6320   -2.8200 ca        1 MOL      0.089910
    120 C40         9.6230   -2.3490   -2.8710 ca        1 MOL     -0.158456
    121 C41         7.8220   -3.9650   -2.7700 ca        1 MOL     -0.158456
    122 C42        10.5480   -3.3910   -3.0550 ca        1 MOL     -0.144827
    123 C43         8.7150   -5.0220   -2.8650 ca        1 MOL     -0.144827
    124 C44        10.0610   -4.7250   -2.9680 ca        1 MOL     -0.113384
    125 H51         6.0920    0.8380   -1.8340 hn        1 MOL      0.308991
    126 H52         7.0510   -1.6160   -0.5230 h1        1 MOL     -0.042779
    127 H53         7.5180   -0.8440   -3.4230 hc        1 MOL      0.048586
    128 H54         6.2820   -1.9910   -2.7490 hc        1 MOL      0.048586
    129 H55         9.9580   -1.3320   -2.9680 ha        1 MOL      0.145931
    130 H56         6.7720   -4.2200   -2.7890 ha        1 MOL      0.145931
    131 H57        11.5990   -3.2180   -3.2060 ha        1 MOL      0.115960
    132 H58         8.4650   -6.0730   -2.8740 ha        1 MOL      0.115960
    133 H59        10.6850   -5.6050   -3.0540 ha        1 MOL      0.088366
    134 N12         9.4920   -0.6680   -0.1960 n         1 MOL      0.169985
    135 C45         9.3610   -1.9810    0.4730 c3        1 MOL     -0.012726
    136 C46         8.3120   -2.0910    1.5940 c         1 MOL      0.458765
    137 O20         7.6250   -3.1420    1.5750 o         1 MOL     -0.547117
    138 C47        10.7680   -2.3200    0.9760 c3        1 MOL      0.030220
    139 C48        11.5920   -0.9870    0.9530 c3        1 MOL     -0.150788
    140 C49        10.7810   -0.0360    0.0260 c3        1 MOL     -0.145212
    141 H60         9.1600   -2.7710   -0.2520 h1        1 MOL      0.063119
    142 H61        10.6670   -2.6710    2.0030 hc        1 MOL      0.004085
    143 H62        11.2310   -3.1410    0.4290 hc        1 MOL      0.004085
    144 H63        11.6100   -0.6130    1.9760 hc        1 MOL      0.053719
    145 H64        12.5630   -1.2580    0.5610 hc        1 MOL      0.053719
    146 H65        10.5510    0.8690    0.5880 h1        1 MOL      0.088363
    147 H66        11.2880    0.0310   -0.9370 h1        1 MOL      0.088363
    148 N13         8.1800   -1.0130    2.3870 n         1 MOL     -0.444953
    149 C50         7.1130   -0.7730    3.4080 c3        1 MOL      0.213238
    150 C51         7.5810   -1.4140    4.7490 c         1 MOL      0.390922
    151 O21         8.4420   -0.9330    5.4660 o         1 MOL     -0.549350
    152 C52         6.8830    0.7220    3.5960 c3        1 MOL     -0.137362
    153 C53         6.9660    1.6870    2.3630 c3        1 MOL      0.138486
    154 C54         6.9870    3.2410    2.6630 c         1 MOL      0.632127
    155 O22         6.5460    3.6700    3.7780 o         1 MOL     -0.708463
    156 O23         7.4830    3.9760    1.7540 o         1 MOL     -0.708463
    157 H67         8.8070   -0.2360    2.2340 hn        1 MOL      0.336698
    158 H68         6.1590   -1.1770    3.0720 h1        1 MOL      0.083047
    159 H69         7.5720    1.0700    4.3700 hc        1 MOL      0.012263
    160 H70         5.8590    0.8210    3.9670 hc        1 MOL      0.012263
    161 H71         6.2120    1.4050    1.6310 hc        1 MOL     -0.096016
    162 H72         7.9120    1.4660    1.8750 hc        1 MOL     -0.096016
    163 N14         6.9470   -2.4950    5.1350 n         1 MOL     -0.308483
    164 C55         5.9040   -3.3360    4.5180 c3        1 MOL     -0.068287
    165 H73         5.0200   -3.3420    5.1550 h1        1 MOL      0.059172
    166 H74         5.6440   -2.9340    3.5390 h1        1 MOL      0.059172
    167 H75         6.2770   -4.3540    4.4060 h1        1 MOL      0.059172
    168 H76         7.3050   -2.9250    5.9810 hn        1 MOL      0.246550
    169 Ca1        -5.1500    0.7680    1.5420 Ca        1 MOL      1.779475
    170 O24        -2.9550   -0.7870    1.7720 oh        1 MOL     -0.828720
    171 H77        -2.1280   -0.6980    1.2910 ho        1 MOL      0.410674
    172 H78        -3.0570   -1.7330    1.9010 ho        1 MOL      0.410674
    173 O25        -5.7980    0.8170    4.0970 oh        1 MOL     -0.828720
    174 H79        -5.3640    0.6690    4.9390 ho        1 MOL      0.410674
    175 H80        -6.7190    0.9650    4.3280 ho        1 MOL      0.410674
    176 O26        -3.1690    2.4080    2.5370 oh        1 MOL     -0.828720
    177 H81        -2.3660    2.2500    3.0220 ho        1 MOL      0.410674
    178 H82        -2.9500    3.1160    1.9320 ho        1 MOL      0.410674
    179 O27        -6.1180    3.2760    1.5470 oh        1 MOL     -0.828720
    180 H83        -6.9590    3.3750    1.1020 ho        1 MOL      0.410674
    181 H84        -5.7870    4.1790    1.6260 ho        1 MOL      0.410674
@<TRIPOS>BOND
     1    1    2 1   
     2    1    4 1   
     3    1    5 1   
     4    1    6 1   
     5    2    3 2   
     6    2    7 1   
     7    7    8 1   
     8    7   15 1   
     9    8    9 1   
    10    8   11 1   
    11    8   16 1   
    12    9   10 2   
    13    9   19 1   
    14   11   12 1   
    15   11   17 1   
    16   11   18 1   
    17   12   13 1   
    18   12   14 1   
    19   19   20 1   
    20   19   24 1   
    21   20   21 1   
    22   20   23 1   
    23   20   25 1   
    24   21   22 2   
    25   21   29 1   
    26   23   26 1   
    27   23   27 1   
    28   23   28 1   
    29   29   30 1   
    30   29   37 1   
    31   30   31 1   
    32   30   33 1   
    33   30   38 1   
    34   31   32 2   
    35   31   41 1   
    36   33   34 1   
    37   33   39 1   
    38   33   40 1   
    39   34   35 1   
    40   34   36 1   
    41   41   42 1   
    42   41   45 1   
    43   42   43 1   
    44   42   46 1   
    45   42   47 1   
    46   43   44 2   
    47   43   48 1   
    48   48   49 1   
    49   48   56 1   
    50   49   50 1   
    51   49   52 1   
    52   49   57 1   
    53   50   51 2   
    54   50   62 1   
    55   52   53 1   
    56   52   58 1   
    57   52   59 1   
    58   53   54 1   
    59   53   55 2   
    60   54   60 1   
    61   54   61 1   
    62   62   63 1   
    63   62   66 1   
    64   63   64 1   
    65   63   67 1   
    66   63   68 1   
    67   64   65 2   
    68   64   69 1   
    69   69   70 1   
    70   69   76 1   
    71   70   71 1   
    72   70   73 1   
    73   70   77 1   
    74   71   72 2   
    75   71   83 1   
    76   73   74 1   
    77   73   75 1   
    78   73   78 1   
    79   74   80 1   
    80   74   81 1   
    81   74   82 1   
    82   75   79 1   
    83   83   84 1   
    84   83   91 1   
    85   84   85 1   
    86   84   87 1   
    87   84   92 1   
    88   85   86 2   
    89   85  102 1   
    90   87   88 1   
    91   87   89 1   
    92   87   93 1   
    93   88   90 1   
    94   88   94 1   
    95   88   95 1   
    96   89   96 1   
    97   89   97 1   
    98   89   98 1   
    99   90   99 1   
   100   90  100 1   
   101   90  101 1   
   102  102  103 1   
   103  102  110 1   
   104  103  104 1   
   105  103  106 1   
   106  103  111 1   
   107  104  105 2   
   108  104  114 1   
   109  106  107 1   
   110  106  112 1   
   111  106  113 1   
   112  107  108 1   
   113  107  109 1   
   114  114  115 1   
   115  114  125 1   
   116  115  116 1   
   117  115  118 1   
   118  115  126 1   
   119  116  117 2   
   120  116  134 1   
   121  118  119 1   
   122  118  127 1   
   123  118  128 1   
   124  119  120 ar  
   125  119  121 ar  
   126  120  122 ar  
   127  120  129 1   
   128  121  123 ar  
   129  121  130 1   
   130  122  124 ar  
   131  122  131 1   
   132  123  124 ar  
   133  123  132 1   
   134  124  133 1   
   135  134  135 1   
   136  134  140 1   
   137  135  136 1   
   138  135  138 1   
   139  135  141 1   
   140  136  137 2   
   141  136  148 1   
   142  138  139 1   
   143  138  142 1   
   144  138  143 1   
   145  139  140 1   
   146  139  144 1   
   147  139  145 1   
   148  140  146 1   
   149  140  147 1   
   150  148  149 1   
   151  148  157 1   
   152  149  150 1   
   153  149  152 1   
   154  149  158 1   
   155  150  151 2   
   156  150  163 1   
   157  152  153 1   
   158  152  159 1   
   159  152  160 1   
   160  153  154 1   
   161  153  161 1   
   162  153  162 1   
   163  154  155 1   
   164  154  156 1   
   165  163  164 1   
   166  163  168 1   
   167  164  165 1   
   168  164  166 1   
   169  164  167 1   
   170  170  171 1   
   171  170  172 1   
   172  173  174 1   
   173  173  175 1   
   174  176  177 1   
   175  176  178 1   
   176  179  180 1   
   177  179  181 1   
@<TRIPOS>SUBSTRUCTURE
     1 MOL         1 TEMP              0 ****  ****    0 ROOT
