@<TRIPOS>MOLECULE
MOL
  178   175     1     0     0
SMALL
resp


@<TRIPOS>ATOM
      1 C1         -6.5890    7.6040    2.2700 c3        1 MOL     -0.393128
      2 C2         -7.3280    6.9990    1.0870 c         1 MOL      0.747612
      3 O1         -7.1980    7.5500   -0.0130 o         1 MOL     -0.607122
      4 H1         -6.2460    6.8060    2.9290 hc        1 MOL      0.090770
      5 H2         -5.7310    8.1710    1.9110 hc        1 MOL      0.090770
      6 H3         -7.2590    8.2650    2.8190 hc        1 MOL      0.090770
      7 N1         -7.9990    5.8800    1.2980 n         1 MOL     -0.668363
      8 C3         -8.8180    5.1290    0.3550 c3        1 MOL      0.374704
      9 C4         -8.1460    3.8960   -0.2010 c         1 MOL      0.563715
     10 O2         -8.6370    2.7920   -0.1720 o         1 MOL     -0.517628
     11 C5        -10.1140    4.8580    1.0270 c3        1 MOL     -0.175365
     12 C6        -11.2100    4.6600    0.0050 c         1 MOL      0.688023
     13 O3        -11.3710    5.4880   -0.9400 o         1 MOL     -0.727392
     14 O4        -11.8780    3.6310    0.2030 o         1 MOL     -0.727392
     15 H4         -8.0560    5.5210    2.2460 hn        1 MOL      0.306178
     16 H5         -8.9680    5.8040   -0.4860 h1        1 MOL     -0.023991
     17 H6        -10.4540    5.7370    1.5690 hc        1 MOL      0.001248
     18 H7         -9.9120    4.0560    1.7410 hc        1 MOL      0.001248
     19 N2         -6.8920    4.1930   -0.6500 n         1 MOL     -0.689665
     20 C7         -5.9540    3.1560   -1.1910 c3        1 MOL      0.265310
     21 C8         -5.0790    2.4000   -0.2140 c         1 MOL      0.620086
     22 O5         -4.4460    3.0360    0.6080 o         1 MOL     -0.580514
     23 C9         -5.0470    4.0200   -2.1340 c3        1 MOL     -0.497738
     24 H8         -6.6210    5.1560   -0.7570 hn        1 MOL      0.352334
     25 H9         -6.5430    2.4160   -1.7420 h1        1 MOL      0.087371
     26 H10        -4.2070    3.3700   -2.4010 hc        1 MOL      0.139766
     27 H11        -5.7060    4.3670   -2.9300 hc        1 MOL      0.139766
     28 H12        -4.6840    4.8570   -1.5370 hc        1 MOL      0.139766
     29 N3         -4.9490    1.0660   -0.1850 n         1 MOL     -0.505104
     30 C10        -5.6040    0.0820   -0.9740 c3        1 MOL      0.075912
     31 C11        -5.6590   -1.3170   -0.4220 c         1 MOL      0.448642
     32 O6         -4.8200   -1.7390    0.3830 o         1 MOL     -0.501380
     33 C12        -4.9610    0.0520   -2.3520 c3        1 MOL     -0.126485
     34 C13        -3.3990    0.0170   -2.4950 c         1 MOL      0.782420
     35 O7         -2.8790    0.2940   -3.6050 o         1 MOL     -0.740345
     36 O8         -2.6910   -0.3610   -1.5580 o         1 MOL     -0.740345
     37 H13        -4.2590    0.7470    0.4920 hn        1 MOL      0.290429
     38 H14        -6.6190    0.4090   -1.2030 h1        1 MOL      0.004598
     39 H15        -5.3270    0.9560   -2.8400 hc        1 MOL      0.010271
     40 H16        -5.3780   -0.7660   -2.9290 hc        1 MOL      0.010271
     41 N4         -6.7840   -1.9350   -0.6580 n         1 MOL     -0.385096
     42 C14        -7.1420   -3.3350   -0.4380 c3        1 MOL      0.072450
     43 C15        -6.8610   -4.2320   -1.6520 c         1 MOL      0.524582
     44 O9         -7.7620   -4.6720   -2.3580 o         1 MOL     -0.569449
     45 H17        -7.4080   -1.3490   -1.1960 hn        1 MOL      0.314288
     46 H18        -8.2230   -3.4340   -0.3160 h1        1 MOL      0.039104
     47 H19        -6.6130   -3.6700    0.4540 h1        1 MOL      0.039104
     48 N5         -5.6670   -4.6590   -1.9030 n         1 MOL     -0.487342
     49 C16        -4.4050   -4.3440   -1.2360 c3        1 MOL      0.182384
     50 C17        -4.2080   -5.0510    0.1100 c         1 MOL      0.567847
     51 O10        -4.5190   -6.2120    0.1120 o         1 MOL     -0.569465
     52 C18        -3.3020   -4.7080   -2.2660 c3        1 MOL     -0.479975
     53 C19        -1.9700   -4.2670   -1.8380 c         1 MOL      0.684104
     54 N6         -0.9510   -4.8710   -2.3500 n         1 MOL     -0.702958
     55 O11        -1.7030   -3.4050   -1.0070 o         1 MOL     -0.527870
     56 H20        -5.6680   -5.4150   -2.5850 hn        1 MOL      0.313352
     57 H21        -4.2450   -3.2650   -1.1540 h1        1 MOL      0.077687
     58 H22        -3.4950   -4.1660   -3.1920 hc        1 MOL      0.141465
     59 H23        -3.2520   -5.7960   -2.3300 hc        1 MOL      0.141465
     60 H24        -1.0500   -5.7130   -2.8950 hn        1 MOL      0.340336
     61 H25        -0.0180   -4.5960   -2.0560 hn        1 MOL      0.340336
     62 N7         -3.6880   -4.3710    1.0970 n         1 MOL     -0.196951
     63 C20        -3.5220   -4.8220    2.4550 c3        1 MOL     -0.209172
     64 C21        -2.0700   -5.3320    2.7620 c         1 MOL      0.584045
     65 O12        -1.8950   -6.1630    3.6720 o         1 MOL     -0.616906
     66 H26        -3.5700   -3.3770    0.9390 hn        1 MOL      0.233138
     67 H27        -4.1380   -5.7150    2.6180 h1        1 MOL      0.091521
     68 H28        -3.8300   -3.9890    3.0850 h1        1 MOL      0.091521
     69 N8         -1.0810   -4.9010    2.0450 n         1 MOL     -0.179590
     70 C22         0.3890   -5.1170    2.2040 c3        1 MOL     -0.020234
     71 C23         1.1380   -3.8210    1.9990 c         1 MOL      0.227989
     72 O13         0.5700   -2.8770    1.4210 o         1 MOL     -0.464862
     73 C24         0.9350   -6.1580    1.2300 c3        1 MOL      0.534477
     74 C25         0.7010   -7.5470    1.7540 c3        1 MOL     -0.485827
     75 O14         0.3950   -6.0660   -0.1200 oh        1 MOL     -0.661294
     76 H29        -1.3730   -4.3080    1.2760 hn        1 MOL      0.071656
     77 H30         0.5660   -5.3440    3.2580 h1        1 MOL      0.050591
     78 H31         1.9960   -5.9440    1.1960 h1        1 MOL     -0.065666
     79 H32         0.9940   -5.5840   -0.6900 ho        1 MOL      0.420870
     80 H33         1.4120   -7.8160    2.5320 hc        1 MOL      0.114278
     81 H34        -0.3300   -7.5410    2.1140 hc        1 MOL      0.114278
     82 H35         0.7160   -8.2000    0.8890 hc        1 MOL      0.114278
     83 N9          2.3220   -3.6680    2.5790 n         1 MOL     -0.054135
     84 C26         3.1250   -2.4140    2.2990 c3        1 MOL      0.095976
     85 C27         4.0700   -2.6690    1.1890 c         1 MOL      0.209527
     86 O15         5.0380   -3.3920    1.3730 o         1 MOL     -0.577533
     87 C28         3.7400   -1.8830    3.5690 c3        1 MOL      0.154368
     88 C29         4.5290   -0.5480    3.3170 c3        1 MOL      0.311990
     89 C30         2.6770   -1.7740    4.7320 c3        1 MOL     -0.301180
     90 C31         5.6570   -0.1380    4.3730 c3        1 MOL     -0.405265
     91 H36         2.7300   -4.4210    3.1160 hn        1 MOL      0.186622
     92 H37         2.4440   -1.6690    1.9030 h1        1 MOL     -0.025395
     93 H38         4.5110   -2.6040    3.8660 hc        1 MOL     -0.039701
     94 H39         3.8710    0.3010    3.1920 hc        1 MOL     -0.067702
     95 H40         5.0370   -0.7090    2.3640 hc        1 MOL     -0.067702
     96 H41         3.1980   -1.4310    5.6250 hc        1 MOL      0.058949
     97 H42         1.9450   -1.0160    4.4420 hc        1 MOL      0.058949
     98 H43         2.2220   -2.7420    4.9260 hc        1 MOL      0.058949
     99 H44         6.2290   -1.0060    4.7110 hc        1 MOL      0.084228
    100 H45         6.4170    0.5070    3.9250 hc        1 MOL      0.084228
    101 H46         5.2980    0.4440    5.2280 hc        1 MOL      0.084228
    102 N10         3.8420   -2.0620    0.0610 n         1 MOL      0.022350
    103 C32         4.5130   -2.4770   -1.2350 c3        1 MOL      0.176561
    104 C33         5.6380   -1.6300   -1.6880 c         1 MOL      0.472926
    105 O16         6.1360   -1.9170   -2.8010 o         1 MOL     -0.568344
    106 C34         3.5050   -2.8170   -2.3920 c3        1 MOL     -0.240073
    107 C35         2.2620   -3.5680   -1.7490 c         1 MOL      0.762874
    108 O17         2.2440   -4.8330   -1.8310 o         1 MOL     -0.720598
    109 O18         1.2920   -2.9390   -1.2690 o         1 MOL     -0.720598
    110 H47         3.0490   -1.4410    0.0260 hn        1 MOL      0.053127
    111 H48         4.9860   -3.4550   -1.1490 h1        1 MOL      0.058131
    112 H49         3.9720   -3.5030   -3.0960 hc        1 MOL      0.051925
    113 H50         3.2280   -1.8870   -2.8780 hc        1 MOL      0.051925
    114 N11         6.0590   -0.6110   -0.9710 n         1 MOL     -0.506995
    115 C36         6.8540    0.4530   -1.4850 c3        1 MOL      0.184999
    116 C37         6.5870    1.7100   -0.6310 c         1 MOL      0.482706
    117 O19         6.3140    1.5740    0.5790 o         1 MOL     -0.546659
    118 C38         8.3190   -0.0510   -1.2310 c3        1 MOL     -0.263074
    119 C39         9.3480    1.0550   -1.5040 ca        1 MOL      0.078519
    120 C40         9.8130    1.8410   -0.4220 ca        1 MOL     -0.144390
    121 C41         9.8970    1.2910   -2.7670 ca        1 MOL     -0.144390
    122 C42        10.7310    2.8660   -0.5790 ca        1 MOL     -0.130418
    123 C43        10.8470    2.3040   -2.9630 ca        1 MOL     -0.130418
    124 C44        11.1940    3.1460   -1.8650 ca        1 MOL     -0.095061
    125 H51         5.5690   -0.4440   -0.1030 hn        1 MOL      0.294336
    126 H52         6.6550    0.6100   -2.5510 h1        1 MOL      0.065557
    127 H53         8.6320   -0.9390   -1.7770 hc        1 MOL      0.136876
    128 H54         8.3080   -0.2810   -0.1670 hc        1 MOL      0.136876
    129 H55         9.3030    1.7690    0.5310 ha        1 MOL      0.120654
    130 H56         9.6030    0.6400   -3.5750 ha        1 MOL      0.120654
    131 H57        11.0970    3.4350    0.2670 ha        1 MOL      0.108799
    132 H58        11.2290    2.5060   -3.9420 ha        1 MOL      0.108799
    133 H59        11.8010    4.0290   -1.9990 ha        1 MOL      0.096170
    134 N12         6.7080    2.9320   -1.2450 n         1 MOL     -0.287606
    135 C45         6.7310    4.2890   -0.5880 c3        1 MOL     -0.046024
    136 C46         5.5820    4.7600    0.2160 c         1 MOL      0.351271
    137 O20         5.5920    5.8410    0.7980 o         1 MOL     -0.542413
    138 C47         7.0380    5.2620   -1.7640 c3        1 MOL     -0.058337
    139 C48         7.5680    4.4230   -2.8630 c3        1 MOL     -0.128253
    140 C49         6.6880    3.2060   -2.6540 c3        1 MOL     -0.142559
    141 H60         7.6480    4.3640   -0.0120 h1        1 MOL      0.137555
    142 H61         6.1660    5.8730   -2.0020 hc        1 MOL      0.065456
    143 H62         7.8570    5.8920   -1.4220 hc        1 MOL      0.065456
    144 H63         7.2610    4.8860   -3.8050 hc        1 MOL      0.077404
    145 H64         8.6220    4.2080   -2.6810 hc        1 MOL      0.077404
    146 H65         5.6860    3.3540   -3.0350 h1        1 MOL      0.099724
    147 H66         7.0680    2.3520   -3.2170 h1        1 MOL      0.099724
    148 N13         4.5620    3.9400    0.3160 n         1 MOL     -0.023756
    149 C50         3.2260    4.2220    0.8750 c3        1 MOL     -0.519720
    150 C51         3.3300    4.5260    2.3930 c         1 MOL      0.598643
    151 O21         2.2920    4.9180    2.8820 o         1 MOL     -0.536762
    152 C52         2.2550    3.0070    0.6420 c3        1 MOL      0.159371
    153 C53         2.4910    1.7440    1.5130 c3        1 MOL     -0.075848
    154 C54         1.6590    0.5640    1.0750 c         1 MOL      0.767987
    155 O22         1.9920   -0.0550    0.0700 o         1 MOL     -0.741048
    156 O23         0.4880    0.3360    1.5680 o         1 MOL     -0.741048
    157 H67         4.5350    3.0830   -0.2260 hn        1 MOL      0.233902
    158 H68         2.9310    5.1720    0.4200 h1        1 MOL      0.213677
    159 H69         2.3360    2.7560   -0.4190 hc        1 MOL      0.016067
    160 H70         1.2460    3.3610    0.8140 hc        1 MOL      0.016067
    161 H71         2.4680    1.9710    2.5850 hc        1 MOL      0.002052
    162 H72         3.5340    1.4850    1.3090 hc        1 MOL      0.002052
    163 N14         4.3910    4.2120    3.1380 n         1 MOL     -0.208101
    164 C55         4.6540    4.6360    4.5350 c3        1 MOL     -0.088790
    165 H73         5.0340    3.7880    5.1060 h1        1 MOL      0.063355
    166 H74         5.3930    5.4370    4.5390 h1        1 MOL      0.063355
    167 H75         3.7290    4.9920    4.9880 h1        1 MOL      0.063355
    168 H76         5.2340    3.9730    2.6230 hn        1 MOL      0.206781
    169 Ca1        -0.4080   -1.0520   -0.4540 Ca        1 MOL      1.789684
    170 O24        -2.3780   -1.1880    1.2810 oh        1 MOL     -0.870194
    171 H77        -3.3240   -1.3430    1.2660 ho        1 MOL      0.408807
    172 H78        -2.2350   -0.6740    2.0800 ho        1 MOL      0.408807
    173 O25        -0.4550    1.4970   -1.3220 oh        1 MOL     -0.870194
    174 H79        -0.5300    2.3850   -0.9650 ho        1 MOL      0.408807
    175 H80        -0.4080    1.6270   -2.2680 ho        1 MOL      0.408807
    176 O26        -0.4300   -1.0010   -3.2210 oh        1 MOL     -0.870194
    177 H81         0.1440   -0.6280   -3.8980 ho        1 MOL      0.408807
    178 H82        -1.2940   -0.6480   -3.4160 ho        1 MOL      0.408807
@<TRIPOS>BOND
     1    1    2 1   
     2    1    4 1   
     3    1    5 1   
     4    1    6 1   
     5    2    3 2   
     6    2    7 1   
     7    7    8 1   
     8    7   15 1   
     9    8    9 1   
    10    8   11 1   
    11    8   16 1   
    12    9   10 2   
    13    9   19 1   
    14   11   12 1   
    15   11   17 1   
    16   11   18 1   
    17   12   13 1   
    18   12   14 1   
    19   19   20 1   
    20   19   24 1   
    21   20   21 1   
    22   20   23 1   
    23   20   25 1   
    24   21   22 2   
    25   21   29 1   
    26   23   26 1   
    27   23   27 1   
    28   23   28 1   
    29   29   30 1   
    30   29   37 1   
    31   30   31 1   
    32   30   33 1   
    33   30   38 1   
    34   31   32 2   
    35   31   41 1   
    36   33   34 1   
    37   33   39 1   
    38   33   40 1   
    39   34   35 1   
    40   34   36 1   
    41   41   42 1   
    42   41   45 1   
    43   42   43 1   
    44   42   46 1   
    45   42   47 1   
    46   43   44 2   
    47   43   48 1   
    48   48   49 1   
    49   48   56 1   
    50   49   50 1   
    51   49   52 1   
    52   49   57 1   
    53   50   51 2   
    54   50   62 1   
    55   52   53 1   
    56   52   58 1   
    57   52   59 1   
    58   53   54 1   
    59   53   55 2   
    60   54   60 1   
    61   54   61 1   
    62   62   63 1   
    63   62   66 1   
    64   63   64 1   
    65   63   67 1   
    66   63   68 1   
    67   64   65 2   
    68   64   69 1   
    69   69   70 1   
    70   69   76 1   
    71   70   71 1   
    72   70   73 1   
    73   70   77 1   
    74   71   72 2   
    75   71   83 1   
    76   73   74 1   
    77   73   75 1   
    78   73   78 1   
    79   74   80 1   
    80   74   81 1   
    81   74   82 1   
    82   75   79 1   
    83   83   84 1   
    84   83   91 1   
    85   84   85 1   
    86   84   87 1   
    87   84   92 1   
    88   85   86 2   
    89   85  102 1   
    90   87   88 1   
    91   87   89 1   
    92   87   93 1   
    93   88   90 1   
    94   88   94 1   
    95   88   95 1   
    96   89   96 1   
    97   89   97 1   
    98   89   98 1   
    99   90   99 1   
   100   90  100 1   
   101   90  101 1   
   102  102  103 1   
   103  102  110 1   
   104  103  104 1   
   105  103  106 1   
   106  103  111 1   
   107  104  105 2   
   108  104  114 1   
   109  106  107 1   
   110  106  112 1   
   111  106  113 1   
   112  107  108 1   
   113  107  109 1   
   114  114  115 1   
   115  114  125 1   
   116  115  116 1   
   117  115  118 1   
   118  115  126 1   
   119  116  117 2   
   120  116  134 1   
   121  118  119 1   
   122  118  127 1   
   123  118  128 1   
   124  119  120 ar  
   125  119  121 ar  
   126  120  122 ar  
   127  120  129 1   
   128  121  123 ar  
   129  121  130 1   
   130  122  124 ar  
   131  122  131 1   
   132  123  124 ar  
   133  123  132 1   
   134  124  133 1   
   135  134  135 1   
   136  134  140 1   
   137  135  136 1   
   138  135  138 1   
   139  135  141 1   
   140  136  137 2   
   141  136  148 1   
   142  138  139 1   
   143  138  142 1   
   144  138  143 1   
   145  139  140 1   
   146  139  144 1   
   147  139  145 1   
   148  140  146 1   
   149  140  147 1   
   150  148  149 1   
   151  148  157 1   
   152  149  150 1   
   153  149  152 1   
   154  149  158 1   
   155  150  151 2   
   156  150  163 1   
   157  152  153 1   
   158  152  159 1   
   159  152  160 1   
   160  153  154 1   
   161  153  161 1   
   162  153  162 1   
   163  154  155 1   
   164  154  156 1   
   165  163  164 1   
   166  163  168 1   
   167  164  165 1   
   168  164  166 1   
   169  164  167 1   
   170  170  171 1   
   171  170  172 1   
   172  173  174 1   
   173  173  175 1   
   174  176  177 1   
   175  176  178 1   
@<TRIPOS>SUBSTRUCTURE
     1 MOL         1 TEMP              0 ****  ****    0 ROOT
