@<TRIPOS>MOLECULE
MOL
  192   187     1     0     0
SMALL
resp


@<TRIPOS>ATOM
      1 C1         -5.1480   -4.5240    4.3760 c3        1 MOL     -0.215846
      2 C2         -4.9950   -3.6190    3.1920 c         1 MOL      0.725310
      3 O1         -4.8080   -4.0760    2.0520 o         1 MOL     -0.622399
      4 H1         -4.9570   -3.9620    5.2890 hc        1 MOL      0.054218
      5 H2         -6.1610   -4.9230    4.3990 hc        1 MOL      0.054218
      6 H3         -4.4350   -5.3450    4.3000 hc        1 MOL      0.054218
      7 N1         -5.0290   -2.3430    3.3550 n         1 MOL     -0.428481
      8 C3         -4.8220   -1.3520    2.3660 c3        1 MOL      0.002228
      9 C4         -3.3580   -1.1480    1.9810 c         1 MOL      0.193965
     10 O2         -3.0770   -0.5530    0.9350 o         1 MOL     -0.290127
     11 C5         -5.4850   -0.0290    2.8610 c3        1 MOL     -0.171189
     12 C6         -5.3250    0.3520    4.3230 c         1 MOL      0.633451
     13 O3         -4.7170    1.4310    4.5720 o         1 MOL     -0.668104
     14 O4         -5.9000   -0.3240    5.2460 o         1 MOL     -0.668104
     15 H4         -5.2770   -1.9790    4.2660 hn        1 MOL      0.242618
     16 H5         -5.3950   -1.7070    1.5080 h1        1 MOL      0.031752
     17 H6         -6.5560   -0.0550    2.6590 hc        1 MOL      0.098253
     18 H7         -5.1320    0.8020    2.2500 hc        1 MOL      0.098253
     19 N2         -2.4520   -1.6660    2.7860 n         1 MOL     -0.071642
     20 C7         -0.9480   -1.5400    2.6030 c3        1 MOL      0.019646
     21 C8         -0.5430   -2.6760    1.6850 c         1 MOL      0.422392
     22 O5         -0.8400   -3.8300    1.9080 o         1 MOL     -0.499489
     23 C9         -0.1550   -1.5700    3.9250 c3        1 MOL     -0.030323
     24 C10        -0.0940   -0.2140    4.6830 c3        1 MOL     -0.150851
     25 C11        -1.4630    0.2490    5.0010 c3        1 MOL      0.144132
     26 C12        -1.4130    1.6390    5.6540 c3        1 MOL      0.207689
     27 N3         -2.6510    2.0280    6.3350 n4        1 MOL     -0.455879
     28 H8         -2.8300   -2.1910    3.5710 hn        1 MOL      0.189843
     29 H9         -0.7740   -0.5740    2.1430 h1        1 MOL     -0.150172
     30 H10         0.9010   -1.7350    3.7450 hc        1 MOL      0.055224
     31 H11        -0.4440   -2.4380    4.5180 hc        1 MOL      0.055224
     32 H12         0.3620    0.5830    4.0810 hc        1 MOL      0.050582
     33 H13         0.4160   -0.2740    5.6460 hc        1 MOL      0.050582
     34 H14        -2.0520   -0.3770    5.6710 hc        1 MOL     -0.033846
     35 H15        -2.0480    0.3810    4.0840 hc        1 MOL     -0.033846
     36 H16        -1.1470    2.4250    4.9510 hx        1 MOL      0.006078
     37 H17        -0.6720    1.5910    6.4550 hx        1 MOL      0.006078
     38 H18        -2.8020    1.5270    7.1990 hn        1 MOL      0.322824
     39 H19        -2.6680    3.0350    6.4530 hn        1 MOL      0.322824
     40 H20        -3.4550    1.8210    5.7560 hn        1 MOL      0.322824
     41 N4          0.3810   -2.5320    0.6460 n         1 MOL     -0.384303
     42 C13         1.0520   -1.2980    0.1410 c3        1 MOL      0.106909
     43 C14         1.7250   -0.4450    1.2340 c         1 MOL      0.344158
     44 O6          1.3900    0.6790    1.5330 o         1 MOL     -0.459480
     45 C15         0.1260   -0.6050   -0.9480 c3        1 MOL      0.398330
     46 C16        -0.1720   -1.4840   -2.1490 c         1 MOL      0.411388
     47 O7          0.1070   -2.6750   -2.1770 o         1 MOL     -0.749830
     48 O8         -0.7440   -0.9450   -3.0750 o         1 MOL     -0.749830
     49 H21         0.6390   -3.4420    0.2910 hn        1 MOL      0.303815
     50 H22         1.9460   -1.5950   -0.4210 h1        1 MOL     -0.050720
     51 H23         0.5970    0.2740   -1.3830 hc        1 MOL     -0.053093
     52 H24        -0.8130   -0.3710   -0.4270 hc        1 MOL     -0.053093
     53 N5          2.7470   -1.0130    1.8930 n         1 MOL     -0.296465
     54 C17         3.5690   -2.2000    1.5830 c3        1 MOL      0.024897
     55 C18         4.4200   -2.7420    2.6870 c         1 MOL      0.483204
     56 O9          4.1940   -2.4430    3.8540 o         1 MOL     -0.530446
     57 H25         3.0670   -0.5080    2.7120 hn        1 MOL      0.296497
     58 H26         4.2830   -1.8310    0.8400 h1        1 MOL      0.060211
     59 H27         3.0200   -3.0350    1.1410 h1        1 MOL      0.060211
     60 N6          5.6080   -3.3280    2.3500 n         1 MOL     -0.433488
     61 C19         6.0800   -3.7040    0.9900 c3        1 MOL      0.128969
     62 C20         6.9540   -2.6390    0.2700 c         1 MOL      0.414601
     63 O10         7.5710   -1.7470    0.8910 o         1 MOL     -0.454018
     64 C21         6.7690   -5.1220    1.0370 c3        1 MOL     -0.113490
     65 C22         7.9220   -5.1280    1.9530 c         1 MOL      0.680298
     66 O11         8.9040   -4.3940    1.6430 o         1 MOL     -0.659404
     67 O12         7.8870   -5.8320    2.9930 o         1 MOL     -0.659404
     68 H28         6.0740   -3.7020    3.1600 hn        1 MOL      0.314751
     69 H29         5.1710   -3.9050    0.4450 h1        1 MOL     -0.011308
     70 H30         7.0780   -5.3050    0.0050 hc        1 MOL     -0.008999
     71 H31         6.0060   -5.8310    1.3480 hc        1 MOL     -0.008999
     72 N7          7.1680   -2.8390   -1.0280 n         1 MOL     -0.189557
     73 C23         7.9960   -2.1000   -1.9500 c3        1 MOL     -0.419446
     74 C24         7.4000   -0.7750   -2.4010 c         1 MOL      0.553091
     75 O13         7.9750   -0.0830   -3.2840 o         1 MOL     -0.605466
     76 H32         6.5410   -3.5070   -1.4690 hn        1 MOL      0.224985
     77 H33         8.1590   -2.7550   -2.8070 h1        1 MOL      0.197421
     78 H34         8.9590   -1.8730   -1.4930 h1        1 MOL      0.197421
     79 N8          6.2910   -0.3900   -1.8240 n         1 MOL     -0.111758
     80 C25         5.7700    0.9950   -1.9730 c3        1 MOL     -0.041901
     81 C26         5.4280    1.4830   -0.5440 c         1 MOL      0.465879
     82 O14         5.1910    0.6490    0.3430 o         1 MOL     -0.431762
     83 C27         4.5600    0.9050   -2.9220 c3        1 MOL      0.195986
     84 C28         3.3450    0.2410   -2.3570 c3        1 MOL     -0.479069
     85 O15         4.9590    0.1550   -4.0560 oh        1 MOL     -0.641729
     86 H35         5.8810   -1.0720   -1.2020 hn        1 MOL      0.028587
     87 H36         6.4790    1.6650   -2.4580 h1        1 MOL      0.089065
     88 H37         4.3300    1.9370   -3.1960 h1        1 MOL      0.022890
     89 H38         5.7680    0.5530   -4.4040 ho        1 MOL      0.413420
     90 H39         3.5830   -0.7640   -2.0170 hc        1 MOL      0.187131
     91 H40         2.8520    0.7390   -1.5280 hc        1 MOL      0.187131
     92 H41         2.5980    0.0260   -3.1290 hc        1 MOL      0.187131
     93 N9          5.2690    2.8290   -0.4140 n         1 MOL     -0.476384
     94 C29         4.8260    3.6210    0.8250 c3        1 MOL     -0.196569
     95 C30         3.3860    3.9330    0.9000 c         1 MOL      0.855910
     96 O16         2.6430    3.6560    1.8340 o         1 MOL     -0.630997
     97 C31         5.7390    4.8350    0.8750 c3        1 MOL      0.264029
     98 C32         7.2610    4.4560    1.0870 c3        1 MOL     -0.168513
     99 C33         5.3300    5.5530    2.1970 c3        1 MOL     -0.413473
    100 C34         8.1940    5.6020    1.2920 c3        1 MOL     -0.180507
    101 H42         5.4070    3.4100   -1.2280 hn        1 MOL      0.265425
    102 H43         5.0980    3.0090    1.6890 h1        1 MOL      0.116179
    103 H44         5.6140    5.5610    0.0660 hc        1 MOL     -0.019126
    104 H45         7.5560    3.9830    0.1520 hc        1 MOL      0.103360
    105 H46         7.3880    3.7810    1.9290 hc        1 MOL      0.103360
    106 H47         4.3030    5.9250    2.0740 hc        1 MOL      0.108901
    107 H48         5.4470    4.9130    3.0680 hc        1 MOL      0.108901
    108 H49         5.9550    6.4440    2.2820 hc        1 MOL      0.108901
    109 H50         8.1680    6.0320    2.2890 hc        1 MOL      0.050922
    110 H51         9.2160    5.2610    1.0740 hc        1 MOL      0.050922
    111 H52         7.8570    6.3800    0.6150 hc        1 MOL      0.050922
    112 N10         2.9160    4.4480   -0.2020 n         1 MOL     -0.527146
    113 C35         1.5030    4.8430   -0.3950 c3        1 MOL     -0.000169
    114 C36         0.5590    3.6820   -0.6380 c         1 MOL      0.483421
    115 O17         0.8950    2.7140   -1.3450 o         1 MOL     -0.497433
    116 C37         1.3520    5.7170   -1.6330 c3        1 MOL      0.410303
    117 C38         1.9080    5.1810   -3.0140 c3        1 MOL     -0.526490
    118 O18         1.9630    6.9190   -1.2840 oh        1 MOL     -0.623326
    119 H53         3.5440    4.6840   -0.9540 hn        1 MOL      0.266367
    120 H54         1.0710    5.3220    0.4810 h1        1 MOL      0.102355
    121 H55         0.2910    5.9200   -1.7030 h1        1 MOL     -0.024262
    122 H56         1.9670    7.3550   -2.1370 ho        1 MOL      0.383336
    123 H57         2.9870    5.0820   -2.9910 hc        1 MOL      0.144347
    124 H58         1.4250    4.2520   -3.3110 hc        1 MOL      0.144347
    125 H59         1.6080    5.9390   -3.7410 hc        1 MOL      0.144347
    126 N11        -0.6950    3.8670   -0.2550 n         1 MOL     -0.580771
    127 C39        -1.6670    2.8160    0.0450 c3        1 MOL      0.435754
    128 C40        -3.0340    2.9410   -0.6880 c         1 MOL      0.461385
    129 O19        -3.2970    3.9760   -1.2770 o         1 MOL     -0.593619
    130 C41        -1.8590    2.6300    1.5790 c3        1 MOL      0.134570
    131 C42        -2.8460    3.5150    2.3550 c3        1 MOL     -0.330780
    132 O20        -0.5940    2.6630    2.2140 oh        1 MOL     -0.506834
    133 H60        -0.8780    4.7710    0.1610 hn        1 MOL      0.287015
    134 H61        -1.2830    1.8490   -0.2820 h1        1 MOL     -0.093113
    135 H62        -2.2940    1.6530    1.8080 h1        1 MOL      0.208001
    136 H63        -0.0330    2.0170    1.7720 ho        1 MOL      0.384258
    137 H64        -2.6860    4.5770    2.1510 hc        1 MOL      0.069316
    138 H65        -3.8740    3.1960    2.1800 hc        1 MOL      0.069316
    139 H66        -2.7500    3.2940    3.4160 hc        1 MOL      0.069316
    140 N12        -3.8120    1.8730   -0.7000 n         1 MOL     -0.283441
    141 C43        -5.0690    1.8100   -1.3720 c3        1 MOL      0.085230
    142 C44        -5.5590    0.4780   -1.7240 c         1 MOL      0.490919
    143 O21        -6.4500    0.4160   -2.5110 o         1 MOL     -0.592322
    144 C45        -6.1340    2.4370   -0.4400 c3        1 MOL      0.029089
    145 C46        -7.5290    2.9120   -1.0240 c3        1 MOL      0.102392
    146 C47        -7.4770    3.9620   -2.1670 c3        1 MOL     -0.271965
    147 C48        -6.3800    5.0690   -1.7780 c3        1 MOL      0.120355
    148 N13        -6.2960    6.1710   -2.7160 n4        1 MOL     -0.270785
    149 H67        -3.4490    1.1170   -0.1400 hn        1 MOL      0.047432
    150 H68        -4.9490    2.2780   -2.3550 h1        1 MOL      0.074215
    151 H69        -5.6950    3.2250    0.1690 hc        1 MOL     -0.030649
    152 H70        -6.4530    1.7260    0.3180 hc        1 MOL     -0.030649
    153 H71        -8.2010    3.3450   -0.2770 hc        1 MOL      0.019147
    154 H72        -7.9590    2.0090   -1.4630 hc        1 MOL      0.019147
    155 H73        -8.4240    4.4470   -2.3890 hc        1 MOL      0.081539
    156 H74        -7.1690    3.4410   -3.0710 hc        1 MOL      0.081539
    157 H75        -5.4160    4.6980   -1.4420 hx        1 MOL      0.055020
    158 H76        -6.7670    5.5140   -0.8710 hx        1 MOL      0.055020
    159 H77        -7.2110    6.4870   -2.9970 hn        1 MOL      0.269873
    160 H78        -5.7280    6.9680   -2.4840 hn        1 MOL      0.269873
    161 H79        -5.8520    5.7860   -3.5300 hn        1 MOL      0.269873
    162 N14        -5.0170   -0.5970   -1.1630 n         1 MOL     -0.320858
    163 C49        -5.3860   -1.9420   -1.5670 c3        1 MOL     -0.187170
    164 C50        -6.7390   -2.3600   -0.9770 c         1 MOL      0.437583
    165 O22        -6.8470   -2.6060    0.2350 o         1 MOL     -0.410746
    166 C51        -4.2530   -2.8500   -1.3580 c3        1 MOL     -0.160536
    167 C52        -4.3510   -4.0960   -2.1820 c3        1 MOL     -0.069063
    168 C53        -4.0630   -3.7960   -3.6620 c         1 MOL      0.385874
    169 O23        -3.0460   -3.1760   -4.0850 o         1 MOL     -0.643899
    170 O24        -4.8390   -4.2610   -4.5060 o         1 MOL     -0.643899
    171 H80        -4.2800   -0.4340   -0.5010 hn        1 MOL      0.287478
    172 H81        -5.4640   -1.9220   -2.6540 h1        1 MOL      0.228655
    173 H82        -4.0750   -3.2020   -0.3380 hc        1 MOL      0.115542
    174 H83        -3.3050   -2.3570   -1.5470 hc        1 MOL      0.115542
    175 H84        -5.3090   -4.6050   -2.0320 hc        1 MOL      0.069807
    176 H85        -3.5310   -4.7000   -1.8000 hc        1 MOL      0.069807
    177 N15        -7.8050   -2.5310   -1.7670 n         1 MOL     -0.260161
    178 C54        -9.0780   -3.0200   -1.3360 c3        1 MOL      0.014800
    179 H86        -9.1620   -2.9070   -0.2550 h1        1 MOL      0.035106
    180 H87        -9.8700   -2.4520   -1.8240 h1        1 MOL      0.035106
    181 H88        -9.1700   -4.0740   -1.5990 h1        1 MOL      0.035106
    182 H89        -7.6780   -2.4110   -2.7620 hn        1 MOL      0.255068
    183 Ca1        -0.6330   -3.0000   -4.7230 Ca        1 MOL      1.747481
    184 O25        -1.5620   -0.9040   -6.1320 oh        1 MOL     -0.875708
    185 H90        -1.4070   -0.0120   -5.8100 ho        1 MOL      0.441371
    186 H91        -2.2350   -0.7890   -6.8060 ho        1 MOL      0.441371
    187 O26         1.4700   -1.2190   -5.1760 oh        1 MOL     -0.875708
    188 H92         1.5700   -0.3620   -5.6030 ho        1 MOL      0.441371
    189 H93         2.3580   -1.4790   -4.9420 ho        1 MOL      0.441371
    190 O27         1.7440   -4.0450   -4.7410 oh        1 MOL     -0.875708
    191 H94         2.5700   -3.8250   -5.1710 ho        1 MOL      0.441371
    192 H95         1.9830   -4.7060   -4.0910 ho        1 MOL      0.441371
@<TRIPOS>BOND
     1    1    2 1   
     2    1    4 1   
     3    1    5 1   
     4    1    6 1   
     5    2    3 2   
     6    2    7 1   
     7    7    8 1   
     8    7   15 1   
     9    8    9 1   
    10    8   11 1   
    11    8   16 1   
    12    9   10 2   
    13    9   19 1   
    14   11   12 1   
    15   11   17 1   
    16   11   18 1   
    17   12   13 1   
    18   12   14 1   
    19   19   20 1   
    20   19   28 1   
    21   20   21 1   
    22   20   23 1   
    23   20   29 1   
    24   21   22 2   
    25   21   41 1   
    26   23   24 1   
    27   23   30 1   
    28   23   31 1   
    29   24   25 1   
    30   24   32 1   
    31   24   33 1   
    32   25   26 1   
    33   25   34 1   
    34   25   35 1   
    35   26   27 1   
    36   26   36 1   
    37   26   37 1   
    38   27   38 1   
    39   27   39 1   
    40   27   40 1   
    41   41   42 1   
    42   41   49 1   
    43   42   43 1   
    44   42   45 1   
    45   42   50 1   
    46   43   44 2   
    47   43   53 1   
    48   45   46 1   
    49   45   51 1   
    50   45   52 1   
    51   46   47 1   
    52   46   48 1   
    53   53   54 1   
    54   53   57 1   
    55   54   55 1   
    56   54   58 1   
    57   54   59 1   
    58   55   56 2   
    59   55   60 1   
    60   60   61 1   
    61   60   68 1   
    62   61   62 1   
    63   61   64 1   
    64   61   69 1   
    65   62   63 2   
    66   62   72 1   
    67   64   65 1   
    68   64   70 1   
    69   64   71 1   
    70   65   66 1   
    71   65   67 1   
    72   72   73 1   
    73   72   76 1   
    74   73   74 1   
    75   73   77 1   
    76   73   78 1   
    77   74   75 2   
    78   74   79 1   
    79   79   80 1   
    80   79   86 1   
    81   80   81 1   
    82   80   83 1   
    83   80   87 1   
    84   81   82 2   
    85   81   93 1   
    86   83   84 1   
    87   83   85 1   
    88   83   88 1   
    89   84   90 1   
    90   84   91 1   
    91   84   92 1   
    92   85   89 1   
    93   93   94 1   
    94   93  101 1   
    95   94   95 1   
    96   94   97 1   
    97   94  102 1   
    98   95   96 2   
    99   95  112 1   
   100   97   98 1   
   101   97   99 1   
   102   97  103 1   
   103   98  100 1   
   104   98  104 1   
   105   98  105 1   
   106   99  106 1   
   107   99  107 1   
   108   99  108 1   
   109  100  109 1   
   110  100  110 1   
   111  100  111 1   
   112  112  113 1   
   113  112  119 1   
   114  113  114 1   
   115  113  116 1   
   116  113  120 1   
   117  114  115 2   
   118  114  126 1   
   119  116  117 1   
   120  116  118 1   
   121  116  121 1   
   122  117  123 1   
   123  117  124 1   
   124  117  125 1   
   125  118  122 1   
   126  126  127 1   
   127  126  133 1   
   128  127  128 1   
   129  127  130 1   
   130  127  134 1   
   131  128  129 2   
   132  128  140 1   
   133  130  131 1   
   134  130  132 1   
   135  130  135 1   
   136  131  137 1   
   137  131  138 1   
   138  131  139 1   
   139  132  136 1   
   140  140  141 1   
   141  140  149 1   
   142  141  142 1   
   143  141  144 1   
   144  141  150 1   
   145  142  143 2   
   146  142  162 1   
   147  144  145 1   
   148  144  151 1   
   149  144  152 1   
   150  145  146 1   
   151  145  153 1   
   152  145  154 1   
   153  146  147 1   
   154  146  155 1   
   155  146  156 1   
   156  147  148 1   
   157  147  157 1   
   158  147  158 1   
   159  148  159 1   
   160  148  160 1   
   161  148  161 1   
   162  162  163 1   
   163  162  171 1   
   164  163  164 1   
   165  163  166 1   
   166  163  172 1   
   167  164  165 2   
   168  164  177 1   
   169  166  167 1   
   170  166  173 1   
   171  166  174 1   
   172  167  168 1   
   173  167  175 1   
   174  167  176 1   
   175  168  169 1   
   176  168  170 1   
   177  177  178 1   
   178  177  182 1   
   179  178  179 1   
   180  178  180 1   
   181  178  181 1   
   182  184  185 1   
   183  184  186 1   
   184  187  188 1   
   185  187  189 1   
   186  190  191 1   
   187  190  192 1   
@<TRIPOS>SUBSTRUCTURE
     1 MOL         1 TEMP              0 ****  ****    0 ROOT
