@<TRIPOS>MOLECULE
MOL
  185   180     1     0     0
SMALL
resp


@<TRIPOS>ATOM
      1 C1         -6.6240    1.0460   -5.5990 c3        1 MOL     -0.393174
      2 C2         -5.7270    1.2420   -4.4290 c         1 MOL      0.674795
      3 O1         -4.4970    1.4370   -4.4730 o         1 MOL     -0.580342
      4 H1         -6.1850    1.5210   -6.4760 hc        1 MOL      0.101610
      5 H2         -6.7490   -0.0200   -5.7870 hc        1 MOL      0.101610
      6 H3         -7.5960    1.4950   -5.3910 hc        1 MOL      0.101610
      7 N1         -6.4200    1.2500   -3.2600 n         1 MOL     -0.477739
      8 C3         -5.7500    1.1420   -1.9390 c3        1 MOL     -0.021126
      9 C4         -5.0480   -0.2170   -1.7560 c         1 MOL      0.456638
     10 O2         -3.8460   -0.2370   -1.4710 o         1 MOL     -0.528105
     11 C5         -6.8030    1.4260   -0.7830 c3        1 MOL      0.017200
     12 C6         -8.0730    0.6500   -0.9130 c         1 MOL      0.701572
     13 O3         -8.9800    1.2440   -1.5220 o         1 MOL     -0.686638
     14 O4         -8.1750   -0.4260   -0.2890 o         1 MOL     -0.686638
     15 H4         -7.4070    1.0030   -3.2790 hn        1 MOL      0.237176
     16 H5         -4.9780    1.8860   -1.7760 h1        1 MOL      0.109778
     17 H6         -7.0240    2.4910   -0.8700 hc        1 MOL     -0.004509
     18 H7         -6.2300    1.2730    0.1240 hc        1 MOL     -0.004509
     19 N2         -5.7560   -1.3540   -1.9640 n         1 MOL     -0.387347
     20 C7         -5.1510   -2.7210   -2.0440 c3        1 MOL      0.065520
     21 C8         -5.0480   -3.2550   -0.6100 c         1 MOL      0.654941
     22 O5         -5.8050   -4.1450   -0.2820 o         1 MOL     -0.568594
     23 C9         -5.9500   -3.6260   -3.0320 c3        1 MOL     -0.188051
     24 C10        -5.3220   -5.0050   -3.3460 c3        1 MOL      0.004134
     25 C11        -6.2090   -5.8000   -4.3020 c3        1 MOL      0.082751
     26 C12        -5.5140   -7.1460   -4.6190 c3        1 MOL      0.035624
     27 N3         -6.1860   -7.9440   -5.7060 n4        1 MOL     -0.315363
     28 H8         -6.7400   -1.2390   -2.1470 hn        1 MOL      0.267631
     29 H9         -4.0980   -2.7040   -2.3560 h1        1 MOL      0.088567
     30 H10        -6.0520   -3.1190   -3.9940 hc        1 MOL      0.073264
     31 H11        -6.9540   -3.7850   -2.6210 hc        1 MOL      0.073264
     32 H12        -5.0410   -5.5650   -2.4530 hc        1 MOL      0.011394
     33 H13        -4.4030   -4.7400   -3.8620 hc        1 MOL      0.011394
     34 H14        -6.3400   -5.1660   -5.1780 hc        1 MOL      0.009402
     35 H15        -7.2240   -6.0120   -3.9680 hc        1 MOL      0.009402
     36 H16        -5.4850   -7.7440   -3.7090 hx        1 MOL      0.079765
     37 H17        -4.4820   -6.9770   -4.9180 hx        1 MOL      0.079765
     38 H18        -5.7390   -8.8560   -5.7440 hn        1 MOL      0.293050
     39 H19        -7.1590   -8.1630   -5.5940 hn        1 MOL      0.293050
     40 H20        -6.0950   -7.5280   -6.6150 hn        1 MOL      0.293050
     41 N4         -4.0740   -2.7890    0.0990 n         1 MOL     -0.410419
     42 C13        -3.6060   -3.3690    1.4000 c3        1 MOL      0.062483
     43 C14        -3.5490   -2.2270    2.5040 c         1 MOL      0.589556
     44 O6         -3.6360   -1.0500    2.1890 o         1 MOL     -0.481256
     45 C15        -2.2360   -4.0620    1.1610 c3        1 MOL     -0.326523
     46 C16        -1.1720   -3.0430    0.8050 c         1 MOL      0.782454
     47 O7         -0.6480   -2.3820    1.7420 o         1 MOL     -0.735952
     48 O8         -0.8280   -2.7910   -0.3670 o         1 MOL     -0.735952
     49 H21        -3.4890   -2.0900   -0.3500 hn        1 MOL      0.152105
     50 H22        -4.3090   -4.1230    1.7570 h1        1 MOL      0.076980
     51 H23        -2.2920   -4.7620    0.3280 hc        1 MOL      0.088597
     52 H24        -1.7690   -4.5830    1.9950 hc        1 MOL      0.088597
     53 N5         -3.6980   -2.6580    3.7500 n         1 MOL     -0.498975
     54 C17        -3.6640   -1.7930    4.9860 c3        1 MOL     -0.080338
     55 C18        -5.1150   -1.2920    5.2160 c         1 MOL      0.565332
     56 O9         -5.9770   -2.1020    5.6180 o         1 MOL     -0.564732
     57 H25        -3.6170   -3.6450    3.9490 hn        1 MOL      0.318672
     58 H26        -2.9010   -1.0290    4.8930 h1        1 MOL      0.119196
     59 H27        -3.3000   -2.3630    5.8390 h1        1 MOL      0.119196
     60 N6         -5.5250   -0.0300    5.1190 n         1 MOL     -0.434249
     61 C19        -4.7560    1.1290    4.6070 c3        1 MOL      0.188858
     62 C20        -5.5310    1.9730    3.5440 c         1 MOL      0.488892
     63 O10        -6.7340    2.1710    3.6580 o         1 MOL     -0.493410
     64 C21        -4.3530    2.1020    5.7070 c3        1 MOL     -0.539937
     65 C22        -3.6670    1.4500    6.9050 c         1 MOL      0.694159
     66 N7         -4.1960    1.3990    8.0900 n         1 MOL     -0.742308
     67 O11        -2.6150    0.8590    6.7540 o         1 MOL     -0.565824
     68 H28        -6.5360    0.0890    5.1980 hn        1 MOL      0.310754
     69 H29        -3.8640    0.7450    4.1200 h1        1 MOL      0.040054
     70 H30        -5.2790    2.4910    6.1290 hc        1 MOL      0.142886
     71 H31        -3.7580    2.8940    5.2530 hc        1 MOL      0.142886
     72 H32        -5.0350    1.9500    8.2430 hn        1 MOL      0.358220
     73 H33        -3.7130    1.0850    8.9110 hn        1 MOL      0.358220
     74 N8         -4.8030    2.4260    2.4840 n         1 MOL     -0.319764
     75 C23        -3.4060    2.5400    2.3490 c3        1 MOL     -0.033129
     76 C24        -2.8440    3.3830    1.1330 c         1 MOL      0.532082
     77 O12        -3.5730    4.2020    0.5720 o         1 MOL     -0.498921
     78 H34        -5.3290    3.0100    1.8580 hn        1 MOL      0.236752
     79 H35        -2.9640    1.5560    2.2220 h1        1 MOL      0.061262
     80 H36        -3.0160    3.1030    3.2020 h1        1 MOL      0.061262
     81 N9         -1.5510    3.1940    0.7620 n         1 MOL     -0.490172
     82 C25        -0.8080    3.8280   -0.3520 c3        1 MOL      0.175788
     83 C26         0.3740    2.9030   -0.7770 c         1 MOL      0.661490
     84 O13         0.5090    1.8350   -0.2150 o         1 MOL     -0.653766
     85 C27        -0.5050    5.3260   -0.0500 c3        1 MOL     -0.069686
     86 C28         0.3130    6.0020   -1.1010 ca        1 MOL     -0.015051
     87 C29         1.6190    6.3710   -0.9190 ca        1 MOL     -0.075358
     88 C30        -0.3240    6.4630   -2.2600 ca        1 MOL     -0.075358
     89 C31         2.3780    7.0940   -1.9060 ca        1 MOL     -0.318938
     90 C32         0.3500    7.1170   -3.2590 ca        1 MOL     -0.318938
     91 C33         1.7680    7.3350   -3.1520 ca        1 MOL      0.397933
     92 O14         2.4420    7.9490   -4.2270 oh        1 MOL     -0.505231
     93 H37        -1.0970    2.3720    1.1380 hn        1 MOL      0.167226
     94 H38        -1.5140    3.8730   -1.1690 h1        1 MOL      0.025321
     95 H39        -0.1190    5.4040    0.9610 hc        1 MOL      0.061660
     96 H40        -1.4500    5.8670    0.0180 hc        1 MOL      0.061660
     97 H41         2.0850    6.0230   -0.0040 ha        1 MOL      0.112008
     98 H42        -1.4030    6.3730   -2.2810 ha        1 MOL      0.112008
     99 H43         3.3770    7.4300   -1.6590 ha        1 MOL      0.166481
    100 H44        -0.0990    7.2350   -4.2400 ha        1 MOL      0.166481
    101 H45         1.8200    8.1580   -4.9310 ho        1 MOL      0.360670
    102 N10         1.2280    3.2280   -1.7300 n         1 MOL     -0.511770
    103 C34         2.4770    2.4330   -1.9490 c3        1 MOL      0.296204
    104 C35         3.5250    2.8040   -0.8500 c         1 MOL      0.360618
    105 O15         3.7560    4.0230   -0.5410 o         1 MOL     -0.485363
    106 C36         3.0540    2.7200   -3.3950 c3        1 MOL      0.183512
    107 C37         2.2790    1.7690   -4.3760 c3        1 MOL     -0.114023
    108 C38         2.9520    4.1950   -3.8590 c3        1 MOL     -0.400627
    109 C39         2.7160    0.3600   -4.1760 c3        1 MOL     -0.059744
    110 H46         1.1790    4.1590   -2.1210 hn        1 MOL      0.164252
    111 H47         2.1980    1.3740   -1.9470 h1        1 MOL      0.087503
    112 H48         4.0770    2.3540   -3.4100 hc        1 MOL     -0.003930
    113 H49         2.6410    2.0770   -5.3530 hc        1 MOL      0.028649
    114 H50         1.2010    1.8550   -4.2930 hc        1 MOL      0.028649
    115 H51         1.9010    4.5060   -3.8240 hc        1 MOL      0.104598
    116 H52         3.5690    4.8090   -3.2180 hc        1 MOL      0.104598
    117 H53         3.2790    4.2430   -4.8960 hc        1 MOL      0.104598
    118 H54         3.7900    0.3620   -4.0190 hc        1 MOL      0.016368
    119 H55         2.1130   -0.2670   -3.5120 hc        1 MOL      0.016368
    120 H56         2.5590   -0.1480   -5.1230 hc        1 MOL      0.016368
    121 N11         4.2030    1.7640   -0.4340 n         1 MOL     -0.586618
    122 C40         5.4680    1.8760    0.3520 c3        1 MOL      0.570108
    123 C41         5.7950    0.6350    1.3200 c         1 MOL      0.040600
    124 O16         5.4310   -0.4950    1.0280 o         1 MOL     -0.132750
    125 C42         6.5370    2.1220   -0.6750 c3        1 MOL      0.105598
    126 O17         7.8500    1.9050   -0.2450 oh        1 MOL     -0.668927
    127 H57         3.9140    0.8150   -0.6230 hn        1 MOL      0.132150
    128 H58         5.4790    2.7860    0.9440 h1        1 MOL     -0.065331
    129 H59         6.4540    3.1810   -0.9520 h1        1 MOL      0.035270
    130 H60         6.2890    1.6180   -1.6120 h1        1 MOL      0.035270
    131 H61         8.3600    2.5660   -0.7200 ho        1 MOL      0.424815
    132 N12         6.5890    0.9000    2.3690 n         1 MOL     -0.343140
    133 C43         6.8270   -0.0460    3.4710 c3        1 MOL      0.031718
    134 C44         7.6570   -1.2700    2.9980 c         1 MOL      0.437522
    135 O18         7.3980   -2.4000    3.4210 o         1 MOL     -0.443589
    136 C45         5.4700   -0.4420    4.1260 c3        1 MOL     -0.065799
    137 H62         6.7660    1.8850    2.5260 hn        1 MOL      0.284145
    138 H63         7.4680    0.4500    4.1980 h1        1 MOL      0.101460
    139 H64         5.0880    0.4440    4.6420 hc        1 MOL      0.021476
    140 H65         4.7490   -0.8180    3.4110 hc        1 MOL      0.021476
    141 H66         5.5760   -1.2050    4.8920 hc        1 MOL      0.021476
    142 N13         8.7380   -1.0680    2.1940 n         1 MOL     -0.555106
    143 C46         9.6590   -2.0320    1.5970 c3        1 MOL      0.329735
    144 C47         8.9100   -2.9770    0.6210 c         1 MOL      0.288293
    145 O19         9.3750   -4.0640    0.4560 o         1 MOL     -0.454364
    146 C48        10.4880   -2.7590    2.7060 c3        1 MOL     -0.211716
    147 H67         8.8750   -0.1130    1.8820 hn        1 MOL      0.270739
    148 H68        10.3550   -1.5220    0.9240 h1        1 MOL      0.008511
    149 H69        11.1620   -3.4700    2.2350 hc        1 MOL      0.066128
    150 H70        11.1860   -2.1120    3.2230 hc        1 MOL      0.066128
    151 H71         9.7850   -3.2850    3.3490 hc        1 MOL      0.066128
    152 N14         7.6880   -2.6380    0.1140 n         1 MOL     -0.172128
    153 C49         6.7340   -3.6270   -0.5310 c3        1 MOL     -0.284222
    154 C50         7.0040   -3.8550   -2.0140 c         1 MOL      0.510083
    155 O20         7.0780   -5.0190   -2.3680 o         1 MOL     -0.531566
    156 C51         5.2370   -3.3250   -0.2590 c3        1 MOL      0.322955
    157 C52         4.5830   -2.4750   -1.3060 c3        1 MOL     -0.073446
    158 C53         3.2440   -1.8660   -0.7730 c         1 MOL      0.595336
    159 O21         2.5110   -2.5620   -0.0430 o         1 MOL     -0.679877
    160 O22         2.9500   -0.6800   -1.0150 o         1 MOL     -0.679877
    161 H72         7.3610   -1.6760    0.1210 hn        1 MOL      0.187493
    162 H73         6.9940   -4.5390    0.0090 h1        1 MOL      0.171298
    163 H74         5.1120   -3.0160    0.7770 hc        1 MOL     -0.049546
    164 H75         4.7250   -4.2900   -0.2960 hc        1 MOL     -0.049546
    165 H76         4.3620   -3.0980   -2.1710 hc        1 MOL     -0.010345
    166 H77         5.3270   -1.7530   -1.6460 hc        1 MOL     -0.010345
    167 N15         7.5830   -2.9230   -2.7490 n         1 MOL     -0.204905
    168 C54         7.9950   -3.0770   -4.1740 c3        1 MOL     -0.256590
    169 H78         8.3770   -4.0850   -4.3340 h1        1 MOL      0.112297
    170 H79         7.1360   -2.9070   -4.8210 h1        1 MOL      0.112297
    171 H80         8.7760   -2.3520   -4.4070 h1        1 MOL      0.112297
    172 H81         7.8340   -2.0540   -2.2940 hn        1 MOL      0.184143
    173 Ca1         0.6360   -0.7420    0.2560 Ca        1 MOL      1.675012
    174 O23         2.4120   -1.1360    2.3830 oh        1 MOL     -0.731713
    175 H82         2.3020   -0.7020    3.2320 ho        1 MOL      0.378498
    176 H83         3.2950   -0.9130    2.1080 ho        1 MOL      0.378498
    177 O24         0.1200    0.7310    2.3710 oh        1 MOL     -0.731713
    178 H84         0.6910    1.4910    2.2110 ho        1 MOL      0.378498
    179 H85        -0.2660    0.8980    3.2360 ho        1 MOL      0.378498
    180 O25        -0.2810   -0.2810   -2.2240 oh        1 MOL     -0.731713
    181 H86        -0.5980    0.5520   -2.5590 ho        1 MOL      0.378498
    182 H87        -0.7340   -0.9410   -2.7420 ho        1 MOL      0.378498
    183 O26        -1.9300    0.2060    0.3820 oh        1 MOL     -0.731713
    184 H88        -2.4420    0.2290   -0.4230 ho        1 MOL      0.378498
    185 H89        -2.5570   -0.0770    1.0520 ho        1 MOL      0.378498
@<TRIPOS>BOND
     1    1    2 1   
     2    1    4 1   
     3    1    5 1   
     4    1    6 1   
     5    2    3 2   
     6    2    7 1   
     7    7    8 1   
     8    7   15 1   
     9    8    9 1   
    10    8   11 1   
    11    8   16 1   
    12    9   10 2   
    13    9   19 1   
    14   11   12 1   
    15   11   17 1   
    16   11   18 1   
    17   12   13 1   
    18   12   14 1   
    19   19   20 1   
    20   19   28 1   
    21   20   21 1   
    22   20   23 1   
    23   20   29 1   
    24   21   22 2   
    25   21   41 1   
    26   23   24 1   
    27   23   30 1   
    28   23   31 1   
    29   24   25 1   
    30   24   32 1   
    31   24   33 1   
    32   25   26 1   
    33   25   34 1   
    34   25   35 1   
    35   26   27 1   
    36   26   36 1   
    37   26   37 1   
    38   27   38 1   
    39   27   39 1   
    40   27   40 1   
    41   41   42 1   
    42   41   49 1   
    43   42   43 1   
    44   42   45 1   
    45   42   50 1   
    46   43   44 2   
    47   43   53 1   
    48   45   46 1   
    49   45   51 1   
    50   45   52 1   
    51   46   47 1   
    52   46   48 1   
    53   53   54 1   
    54   53   57 1   
    55   54   55 1   
    56   54   58 1   
    57   54   59 1   
    58   55   56 2   
    59   55   60 1   
    60   60   61 1   
    61   60   68 1   
    62   61   62 1   
    63   61   64 1   
    64   61   69 1   
    65   62   63 2   
    66   62   74 1   
    67   64   65 1   
    68   64   70 1   
    69   64   71 1   
    70   65   66 1   
    71   65   67 2   
    72   66   72 1   
    73   66   73 1   
    74   74   75 1   
    75   74   78 1   
    76   75   76 1   
    77   75   79 1   
    78   75   80 1   
    79   76   77 2   
    80   76   81 1   
    81   81   82 1   
    82   81   93 1   
    83   82   83 1   
    84   82   85 1   
    85   82   94 1   
    86   83   84 2   
    87   83  102 1   
    88   85   86 1   
    89   85   95 1   
    90   85   96 1   
    91   86   87 ar  
    92   86   88 ar  
    93   87   89 ar  
    94   87   97 1   
    95   88   90 ar  
    96   88   98 1   
    97   89   91 ar  
    98   89   99 1   
    99   90   91 ar  
   100   90  100 1   
   101   91   92 1   
   102   92  101 1   
   103  102  103 1   
   104  102  110 1   
   105  103  104 1   
   106  103  106 1   
   107  103  111 1   
   108  104  105 2   
   109  104  121 1   
   110  106  107 1   
   111  106  108 1   
   112  106  112 1   
   113  107  109 1   
   114  107  113 1   
   115  107  114 1   
   116  108  115 1   
   117  108  116 1   
   118  108  117 1   
   119  109  118 1   
   120  109  119 1   
   121  109  120 1   
   122  121  122 1   
   123  121  127 1   
   124  122  123 1   
   125  122  125 1   
   126  122  128 1   
   127  123  124 2   
   128  123  132 1   
   129  125  126 1   
   130  125  129 1   
   131  125  130 1   
   132  126  131 1   
   133  132  133 1   
   134  132  137 1   
   135  133  134 1   
   136  133  136 1   
   137  133  138 1   
   138  134  135 2   
   139  134  142 1   
   140  136  139 1   
   141  136  140 1   
   142  136  141 1   
   143  142  143 1   
   144  142  147 1   
   145  143  144 1   
   146  143  146 1   
   147  143  148 1   
   148  144  145 2   
   149  144  152 1   
   150  146  149 1   
   151  146  150 1   
   152  146  151 1   
   153  152  153 1   
   154  152  161 1   
   155  153  154 1   
   156  153  156 1   
   157  153  162 1   
   158  154  155 2   
   159  154  167 1   
   160  156  157 1   
   161  156  163 1   
   162  156  164 1   
   163  157  158 1   
   164  157  165 1   
   165  157  166 1   
   166  158  159 1   
   167  158  160 1   
   168  167  168 1   
   169  167  172 1   
   170  168  169 1   
   171  168  170 1   
   172  168  171 1   
   173  174  175 1   
   174  174  176 1   
   175  177  178 1   
   176  177  179 1   
   177  180  181 1   
   178  180  182 1   
   179  183  184 1   
   180  183  185 1   
@<TRIPOS>SUBSTRUCTURE
     1 MOL         1 TEMP              0 ****  ****    0 ROOT
