@<TRIPOS>MOLECULE
MOL
  181   177     1     0     0
SMALL
resp


@<TRIPOS>ATOM
      1 C1         10.3370   -7.0290    0.1740 c3        1 MOL     -0.459121
      2 C2          9.6080   -5.8030   -0.2500 c         1 MOL      0.663150
      3 O1          8.5760   -5.8370   -0.8720 o         1 MOL     -0.556676
      4 H1         11.2550   -6.7450    0.6870 hc        1 MOL      0.109959
      5 H2          9.7090   -7.6120    0.8480 hc        1 MOL      0.109959
      6 H3         10.5830   -7.6270   -0.7040 hc        1 MOL      0.109959
      7 N1         10.2260   -4.6280   -0.1980 n         1 MOL     -0.424578
      8 C3         11.5890   -4.2990    0.4380 c3        1 MOL      0.111121
      9 C4         12.5340   -3.4910   -0.4780 c         1 MOL      0.435285
     10 O2         13.7590   -3.5060   -0.2840 o         1 MOL     -0.548041
     11 C5         11.3180   -3.5930    1.7520 c3        1 MOL     -0.145206
     12 C6         10.2320   -2.5210    1.7150 c         1 MOL      0.806007
     13 O3         10.2800   -1.7170    0.7210 o         1 MOL     -0.778614
     14 O4          9.3090   -2.4140    2.5280 o         1 MOL     -0.778614
     15 H4          9.6520   -3.8370   -0.4730 hn        1 MOL      0.251197
     16 H5         12.1520   -5.2190    0.6000 h1        1 MOL      0.032468
     17 H6         12.1740   -3.0430    2.1470 hc        1 MOL      0.023295
     18 H7         11.1070   -4.2820    2.5680 hc        1 MOL      0.023295
     19 N2         11.9830   -2.6380   -1.3870 n         1 MOL     -0.300198
     20 C7         12.7180   -1.8450   -2.3190 c3        1 MOL      0.231860
     21 C8         11.8960   -0.6040   -2.8450 c         1 MOL      0.390541
     22 O5         12.2260    0.1010   -3.7910 o         1 MOL     -0.528252
     23 C9         13.1600   -2.7600   -3.3930 c3        1 MOL     -0.379593
     24 H8         10.9850   -2.6670   -1.5390 hn        1 MOL      0.214302
     25 H9         13.6790   -1.5430   -1.9050 h1        1 MOL      0.050099
     26 H10        13.8220   -3.4350   -2.8460 hc        1 MOL      0.098056
     27 H11        12.2160   -3.0660   -3.8630 hc        1 MOL      0.098056
     28 H12        13.7500   -2.2560   -4.1600 hc        1 MOL      0.098056
     29 N3         10.7370   -0.4150   -2.1650 n         1 MOL     -0.282491
     30 C10         9.4810    0.3080   -2.4720 c3        1 MOL      0.355844
     31 C11         8.9900    1.3180   -1.3750 c         1 MOL      0.230448
     32 O6          9.3250    1.1570   -0.1970 o         1 MOL     -0.454982
     33 C12         8.3110   -0.6860   -2.6000 c3        1 MOL     -0.174446
     34 C13         8.1510   -1.7600   -1.4890 c         1 MOL      0.674957
     35 O7          8.6030   -2.8880   -1.6320 o         1 MOL     -0.629303
     36 O8          7.6470   -1.4310   -0.3890 o         1 MOL     -0.629303
     37 H13        10.5460   -1.0530   -1.4050 hn        1 MOL      0.101909
     38 H14         9.6080    0.8490   -3.4020 h1        1 MOL     -0.027378
     39 H15         8.4780   -1.1620   -3.5630 hc        1 MOL      0.025876
     40 H16         7.3850   -0.1490   -2.8010 hc        1 MOL      0.025876
     41 N4          8.0910    2.2880   -1.7790 n         1 MOL     -0.295862
     42 C14         7.4690    3.2010   -0.8270 c3        1 MOL     -0.198057
     43 C15         6.4370    2.5800    0.1250 c         1 MOL      0.638581
     44 O9          6.4590    1.3700    0.3870 o         1 MOL     -0.579798
     45 H17         7.8090    2.3630   -2.7460 hn        1 MOL      0.277627
     46 H18         6.8340    3.7980   -1.4810 h1        1 MOL      0.112809
     47 H19         8.1780    3.8740   -0.3430 h1        1 MOL      0.112809
     48 N5          5.5180    3.4360    0.5950 n         1 MOL     -0.529169
     49 C16         4.2600    3.1160    1.3020 c3        1 MOL      0.251206
     50 C17         2.9830    3.8870    0.8760 c         1 MOL      0.571964
     51 O10         3.1290    4.9660    0.2620 o         1 MOL     -0.529906
     52 C18         4.4960    3.1090    2.7670 c3        1 MOL     -0.246876
     53 C19         4.7750    4.5000    3.2860 c         1 MOL      0.616819
     54 N6          3.8500    5.0320    4.0070 n         1 MOL     -0.657029
     55 O11         5.8900    5.0030    3.0720 o         1 MOL     -0.587281
     56 H20         5.5500    4.3840    0.2430 hn        1 MOL      0.281487
     57 H21         3.9550    2.1080    1.0270 h1        1 MOL      0.034303
     58 H22         5.3590    2.4970    3.0010 hc        1 MOL      0.047750
     59 H23         3.6430    2.6660    3.2860 hc        1 MOL      0.047750
     60 H24         3.1370    4.4870    4.4730 hn        1 MOL      0.336723
     61 H25         4.0380    5.9410    4.3990 hn        1 MOL      0.336723
     62 N7          1.8340    3.3360    1.1420 n         1 MOL     -0.669182
     63 C20         0.5950    3.9390    0.6830 c3        1 MOL      0.079474
     64 C21         0.2380    3.7520   -0.7830 c         1 MOL      0.703689
     65 O12         0.9000    2.8660   -1.3660 o         1 MOL     -0.558865
     66 H26         1.8240    2.3550    1.3830 hn        1 MOL      0.396935
     67 H27         0.6080    5.0190    0.8490 h1        1 MOL      0.086420
     68 H28        -0.2090    3.4320    1.2200 h1        1 MOL      0.086420
     69 N8         -0.7940    4.3820   -1.3290 n         1 MOL     -0.750682
     70 C22        -1.9190    5.2810   -0.7280 c3        1 MOL      0.075020
     71 C23        -3.1750    4.5580   -0.6110 c         1 MOL      0.539264
     72 O13        -4.0450    5.0650    0.1140 o         1 MOL     -0.582170
     73 C24        -2.1360    6.6380   -1.4520 c3        1 MOL      0.512912
     74 C25        -0.7650    7.3640   -1.4080 c3        1 MOL     -0.517649
     75 O14        -2.4290    6.5600   -2.8380 oh        1 MOL     -0.597973
     76 H29        -0.8300    4.1700   -2.3240 hn        1 MOL      0.366810
     77 H30        -1.6270    5.6620    0.2510 h1        1 MOL      0.030767
     78 H31        -2.9110    7.1810   -0.9120 h1        1 MOL     -0.026893
     79 H32        -3.0770    7.2510   -3.0370 ho        1 MOL      0.362622
     80 H33        -0.3980    7.5310   -0.3910 hc        1 MOL      0.121114
     81 H34         0.0110    6.8510   -1.9810 hc        1 MOL      0.121114
     82 H35        -0.8990    8.3210   -1.9250 hc        1 MOL      0.121114
     83 N9         -3.4540    3.5410   -1.4220 n         1 MOL     -0.354328
     84 C26        -4.7290    2.7280   -1.3250 c3        1 MOL      0.069133
     85 C27        -4.6150    1.3890   -0.5240 c         1 MOL      0.505346
     86 O15        -3.5810    0.7760   -0.5930 o         1 MOL     -0.543644
     87 C28        -5.2200    2.5080   -2.7660 c3        1 MOL      0.018937
     88 C29        -6.1060    3.6820   -3.2520 c3        1 MOL      0.018338
     89 C30        -6.0630    1.2500   -3.0650 c3        1 MOL     -0.150016
     90 C31        -5.3510    4.9770   -3.5840 c3        1 MOL      0.024311
     91 H36        -2.7810    3.3690   -2.1530 hn        1 MOL      0.249167
     92 H37        -5.4940    3.2950   -0.7980 h1        1 MOL      0.112788
     93 H38        -4.3260    2.5030   -3.3780 hc        1 MOL      0.065862
     94 H39        -6.9510    3.9020   -2.5930 hc        1 MOL     -0.017733
     95 H40        -6.5220    3.3410   -4.1960 hc        1 MOL     -0.017733
     96 H41        -6.3520    1.2380   -4.1150 hc        1 MOL      0.038501
     97 H42        -5.4110    0.3950   -2.8610 hc        1 MOL      0.038501
     98 H43        -6.9590    1.1420   -2.4450 hc        1 MOL      0.038501
     99 H44        -5.2580    5.5610   -2.6590 hc        1 MOL     -0.028106
    100 H45        -4.3760    4.7660   -4.0280 hc        1 MOL     -0.028106
    101 H46        -5.9400    5.5830   -4.2590 hc        1 MOL     -0.028106
    102 N10        -5.6260    0.9490    0.2060 n         1 MOL     -0.355706
    103 C32        -6.9310    1.5540    0.5320 c3        1 MOL     -0.134583
    104 C33        -7.9930    0.4530    0.7350 c         1 MOL      0.761910
    105 O16        -7.6750   -0.6890    1.1750 o         1 MOL     -0.565490
    106 C34        -6.8460    2.3620    1.9000 c3        1 MOL     -0.160059
    107 C35        -5.7020    1.9200    2.8050 c         1 MOL      0.734438
    108 O17        -5.8340    0.8240    3.4110 o         1 MOL     -0.727408
    109 O18        -4.8150    2.7360    3.1720 o         1 MOL     -0.727408
    110 H47        -5.4680    0.0330    0.6000 hn        1 MOL      0.286183
    111 H48        -7.2950    2.2080   -0.2530 h1        1 MOL      0.086988
    112 H49        -7.7220    2.1630    2.5190 hc        1 MOL      0.016717
    113 H50        -6.8140    3.4350    1.6930 hc        1 MOL      0.016717
    114 N11        -9.2130    0.8470    0.5640 n         1 MOL     -0.757392
    115 C36       -10.3500   -0.1160    0.7550 c3        1 MOL      0.580833
    116 C37       -10.6060   -0.8890   -0.6250 c         1 MOL      0.171176
    117 O19       -10.8110   -0.2630   -1.7140 o         1 MOL     -0.525992
    118 C38       -11.5490    0.6690    1.2360 c3        1 MOL     -0.240106
    119 C39       -12.9110   -0.0060    1.2420 ca        1 MOL      0.090083
    120 C40       -13.6660    0.0240    0.0220 ca        1 MOL     -0.181784
    121 C41       -13.3020   -0.8430    2.2720 ca        1 MOL     -0.181784
    122 C42       -14.7920   -0.8030   -0.0960 ca        1 MOL     -0.083526
    123 C43       -14.4520   -1.5520    2.1390 ca        1 MOL     -0.083526
    124 C44       -15.1860   -1.6170    0.9850 ca        1 MOL     -0.145071
    125 H51        -9.4500    1.6840    0.0390 hn        1 MOL      0.320862
    126 H52       -10.0740   -0.7630    1.5840 h1        1 MOL     -0.016241
    127 H53       -11.6680    1.6090    0.7100 hc        1 MOL      0.073524
    128 H54       -11.3030    0.9660    2.2600 hc        1 MOL      0.073524
    129 H55       -13.2440    0.4100   -0.8850 ha        1 MOL      0.133248
    130 H56       -12.7470   -0.9190    3.1900 ha        1 MOL      0.133248
    131 H57       -15.2770   -0.8690   -1.0570 ha        1 MOL      0.092581
    132 H58       -14.7380   -2.1690    2.9730 ha        1 MOL      0.092581
    133 H59       -16.0570   -2.2530    0.8710 ha        1 MOL      0.103421
    134 N12       -10.9610   -2.2060   -0.5950 n         1 MOL      0.129087
    135 C45       -10.8610   -3.0390    0.6290 c3        1 MOL      0.190260
    136 C46        -9.4090   -3.4980    0.8350 c         1 MOL      0.422059
    137 O20        -9.0570   -4.0260    1.9020 o         1 MOL     -0.577186
    138 C47       -11.7530   -4.2170    0.2970 c3        1 MOL     -0.174779
    139 C48       -11.6880   -4.4560   -1.2230 c3        1 MOL      0.014731
    140 C49       -11.6630   -2.9860   -1.6420 c3        1 MOL     -0.404839
    141 H60       -11.2310   -2.6140    1.5570 h1        1 MOL     -0.024585
    142 H61       -11.4800   -5.0910    0.8980 hc        1 MOL      0.050171
    143 H62       -12.7650   -3.9050    0.5610 hc        1 MOL      0.050171
    144 H63       -10.7370   -4.9160   -1.4590 hc        1 MOL      0.041405
    145 H64       -12.5470   -4.9190   -1.7020 hc        1 MOL      0.041405
    146 H65       -11.1080   -2.9520   -2.5900 h1        1 MOL      0.154886
    147 H66       -12.6790   -2.5940   -1.6230 h1        1 MOL      0.154886
    148 N13        -8.4640   -3.3980   -0.1360 n         1 MOL     -0.204915
    149 C50        -7.1120   -4.0600    0.0500 c3        1 MOL      0.044228
    150 C51        -7.1930   -5.6030    0.2430 c         1 MOL      0.407832
    151 O21        -7.3830   -6.3810   -0.6820 o         1 MOL     -0.548642
    152 C52        -6.2090   -3.8630   -1.1590 c3        1 MOL     -0.091878
    153 C53        -5.8830   -2.3800   -1.5190 c3        1 MOL     -0.172094
    154 C54        -5.3410   -2.3900   -2.9520 c         1 MOL      0.685618
    155 O22        -6.1130   -2.5760   -3.9390 o         1 MOL     -0.681602
    156 O23        -4.0930   -2.2680   -3.1720 o         1 MOL     -0.681602
    157 H67        -8.6520   -2.9090   -1.0050 hn        1 MOL      0.215921
    158 H68        -6.5420   -3.5560    0.8210 h1        1 MOL      0.102612
    159 H69        -6.6980   -4.2890   -2.0430 hc        1 MOL      0.057960
    160 H70        -5.2520   -4.3530   -0.9800 hc        1 MOL      0.057960
    161 H71        -5.0330   -2.0430   -0.9260 hc        1 MOL      0.032795
    162 H72        -6.7360   -1.7480   -1.2720 hc        1 MOL      0.032795
    163 N14        -6.9030   -6.1720    1.4560 n         1 MOL     -0.286007
    164 C55        -6.3900   -5.5530    2.6700 c3        1 MOL     -0.180052
    165 H73        -5.5620   -4.8910    2.4190 h1        1 MOL      0.088604
    166 H74        -7.1820   -4.9760    3.1480 h1        1 MOL      0.088604
    167 H75        -6.0410   -6.3270    3.3540 h1        1 MOL      0.088604
    168 H76        -6.8100   -7.1780    1.4300 hn        1 MOL      0.244155
    169 Ca1         8.2530   -0.1770    1.9190 Ca        1 MOL      1.763902
    170 O24        10.8960    0.4630    2.8990 oh        1 MOL     -0.833212
    171 H77        11.3650   -0.0980    3.5250 ho        1 MOL      0.398650
    172 H78        11.0020    1.3490    3.2490 ho        1 MOL      0.398650
    173 O25         8.1440    2.5270    2.6800 oh        1 MOL     -0.833212
    174 H79         7.5190    3.2550    2.6700 ho        1 MOL      0.398650
    175 H80         8.9460    2.9050    3.0230 ho        1 MOL      0.398650
    176 O26         7.9670   -0.5430    4.6010 oh        1 MOL     -0.833212
    177 H81         8.5960   -0.5910    5.3260 ho        1 MOL      0.398650
    178 H82         7.1360   -0.8250    4.9830 ho        1 MOL      0.398650
    179 O27         5.6440   -0.9490    2.2100 oh        1 MOL     -0.833212
    180 H83         4.9460   -0.5080    2.7060 ho        1 MOL      0.398650
    181 H84         5.2490   -1.1220    1.3490 ho        1 MOL      0.398650
@<TRIPOS>BOND
     1    1    2 1   
     2    1    4 1   
     3    1    5 1   
     4    1    6 1   
     5    2    3 2   
     6    2    7 1   
     7    7    8 1   
     8    7   15 1   
     9    8    9 1   
    10    8   11 1   
    11    8   16 1   
    12    9   10 2   
    13    9   19 1   
    14   11   12 1   
    15   11   17 1   
    16   11   18 1   
    17   12   13 1   
    18   12   14 1   
    19   19   20 1   
    20   19   24 1   
    21   20   21 1   
    22   20   23 1   
    23   20   25 1   
    24   21   22 2   
    25   21   29 1   
    26   23   26 1   
    27   23   27 1   
    28   23   28 1   
    29   29   30 1   
    30   29   37 1   
    31   30   31 1   
    32   30   33 1   
    33   30   38 1   
    34   31   32 2   
    35   31   41 1   
    36   33   34 1   
    37   33   39 1   
    38   33   40 1   
    39   34   35 1   
    40   34   36 1   
    41   41   42 1   
    42   41   45 1   
    43   42   43 1   
    44   42   46 1   
    45   42   47 1   
    46   43   44 2   
    47   43   48 1   
    48   48   49 1   
    49   48   56 1   
    50   49   50 1   
    51   49   52 1   
    52   49   57 1   
    53   50   51 2   
    54   50   62 1   
    55   52   53 1   
    56   52   58 1   
    57   52   59 1   
    58   53   54 1   
    59   53   55 2   
    60   54   60 1   
    61   54   61 1   
    62   62   63 1   
    63   62   66 1   
    64   63   64 1   
    65   63   67 1   
    66   63   68 1   
    67   64   65 2   
    68   64   69 1   
    69   69   70 1   
    70   69   76 1   
    71   70   71 1   
    72   70   73 1   
    73   70   77 1   
    74   71   72 2   
    75   71   83 1   
    76   73   74 1   
    77   73   75 1   
    78   73   78 1   
    79   74   80 1   
    80   74   81 1   
    81   74   82 1   
    82   75   79 1   
    83   83   84 1   
    84   83   91 1   
    85   84   85 1   
    86   84   87 1   
    87   84   92 1   
    88   85   86 2   
    89   85  102 1   
    90   87   88 1   
    91   87   89 1   
    92   87   93 1   
    93   88   90 1   
    94   88   94 1   
    95   88   95 1   
    96   89   96 1   
    97   89   97 1   
    98   89   98 1   
    99   90   99 1   
   100   90  100 1   
   101   90  101 1   
   102  102  103 1   
   103  102  110 1   
   104  103  104 1   
   105  103  106 1   
   106  103  111 1   
   107  104  105 2   
   108  104  114 1   
   109  106  107 1   
   110  106  112 1   
   111  106  113 1   
   112  107  108 1   
   113  107  109 1   
   114  114  115 1   
   115  114  125 1   
   116  115  116 1   
   117  115  118 1   
   118  115  126 1   
   119  116  117 2   
   120  116  134 1   
   121  118  119 1   
   122  118  127 1   
   123  118  128 1   
   124  119  120 ar  
   125  119  121 ar  
   126  120  122 ar  
   127  120  129 1   
   128  121  123 ar  
   129  121  130 1   
   130  122  124 ar  
   131  122  131 1   
   132  123  124 ar  
   133  123  132 1   
   134  124  133 1   
   135  134  135 1   
   136  134  140 1   
   137  135  136 1   
   138  135  138 1   
   139  135  141 1   
   140  136  137 2   
   141  136  148 1   
   142  138  139 1   
   143  138  142 1   
   144  138  143 1   
   145  139  140 1   
   146  139  144 1   
   147  139  145 1   
   148  140  146 1   
   149  140  147 1   
   150  148  149 1   
   151  148  157 1   
   152  149  150 1   
   153  149  152 1   
   154  149  158 1   
   155  150  151 2   
   156  150  163 1   
   157  152  153 1   
   158  152  159 1   
   159  152  160 1   
   160  153  154 1   
   161  153  161 1   
   162  153  162 1   
   163  154  155 1   
   164  154  156 1   
   165  163  164 1   
   166  163  168 1   
   167  164  165 1   
   168  164  166 1   
   169  164  167 1   
   170  170  171 1   
   171  170  172 1   
   172  173  174 1   
   173  173  175 1   
   174  176  177 1   
   175  176  178 1   
   176  179  180 1   
   177  179  181 1   
@<TRIPOS>SUBSTRUCTURE
     1 MOL         1 TEMP              0 ****  ****    0 ROOT
