@<TRIPOS>MOLECULE
MOL
  189   185     1     0     0
SMALL
resp


@<TRIPOS>ATOM
      1 C1         -9.2140    1.3840   -1.5060 c3        1 MOL     -0.591051
      2 C2         -8.0710    0.9260   -0.5720 c         1 MOL      0.784931
      3 O1         -6.9470    0.7400   -1.1170 o         1 MOL     -0.708033
      4 H1         -9.3280    0.6670   -2.3190 hc        1 MOL      0.153444
      5 H2        -10.1440    1.4420   -0.9410 hc        1 MOL      0.153444
      6 H3         -8.9760    2.3650   -1.9180 hc        1 MOL      0.153444
      7 N1         -8.1710    0.7060    0.7400 n         1 MOL     -0.538703
      8 C3         -6.9190    0.4100    1.4870 c3        1 MOL     -0.091577
      9 C4         -6.6890   -1.1570    1.5660 c         1 MOL      0.587584
     10 O2         -6.6310   -1.7180    2.6390 o         1 MOL     -0.453701
     11 C5         -6.9410    1.0940    2.9310 c3        1 MOL     -0.183431
     12 C6         -8.2860    1.2010    3.7410 c         1 MOL      0.711979
     13 O3         -8.4040    2.1190    4.5710 o         1 MOL     -0.636061
     14 O4         -9.1710    0.3600    3.5550 o         1 MOL     -0.636061
     15 H4         -9.1040    0.6970    1.1430 hn        1 MOL      0.311365
     16 H5         -5.9960    0.7130    0.9930 h1        1 MOL      0.208722
     17 H6         -6.5940    2.1120    2.7430 hc        1 MOL      0.061322
     18 H7         -6.1290    0.7310    3.5750 hc        1 MOL      0.061322
     19 N2         -6.5270   -1.7510    0.3880 n         1 MOL     -0.510884
     20 C7         -6.0950   -3.1420    0.2640 c3        1 MOL      0.132035
     21 C8         -4.6540   -3.3690    0.6840 c         1 MOL      0.343088
     22 O5         -4.4630   -4.2800    1.5380 o         1 MOL     -0.500776
     23 C9         -6.3990   -3.6470   -1.1870 c3        1 MOL      0.058654
     24 C10        -7.8880   -3.7120   -1.5730 c3        1 MOL     -0.015083
     25 C11        -8.2480   -4.3250   -2.9580 c3        1 MOL     -0.217741
     26 C12        -9.7780   -4.1090   -3.1660 c3        1 MOL      0.146439
     27 N3        -10.1340   -4.5480   -4.4920 n4        1 MOL     -0.209310
     28 H8         -6.4890   -1.1840   -0.4420 hn        1 MOL      0.271240
     29 H9         -6.6760   -3.7600    0.9560 h1        1 MOL      0.077124
     30 H10        -6.0180   -4.6690   -1.1570 hc        1 MOL     -0.009760
     31 H11        -5.7700   -3.1450   -1.9250 hc        1 MOL     -0.009760
     32 H12        -8.2620   -2.6920   -1.4790 hc        1 MOL      0.023268
     33 H13        -8.3270   -4.3030   -0.7660 hc        1 MOL      0.023268
     34 H14        -8.0390   -5.3910   -2.8990 hc        1 MOL      0.085114
     35 H15        -7.6670   -3.8470   -3.7550 hc        1 MOL      0.085114
     36 H16       -10.1810   -3.1360   -2.9160 hx        1 MOL      0.054992
     37 H17       -10.3170   -4.7940   -2.5010 hx        1 MOL      0.054992
     38 H18        -9.7050   -3.9280   -5.1640 hn        1 MOL      0.223599
     39 H19        -9.7560   -5.4570   -4.6880 hn        1 MOL      0.223599
     40 H20       -11.1380   -4.5970   -4.5870 hn        1 MOL      0.223599
     41 N4         -3.6270   -2.5820    0.3040 n         1 MOL     -0.263889
     42 C13        -3.6720   -1.5200   -0.6530 c3        1 MOL      0.082064
     43 C14        -3.5700   -0.1650    0.0650 c         1 MOL      0.242431
     44 O6         -3.2510   -0.1010    1.3040 o         1 MOL     -0.455437
     45 C15        -2.4880   -1.6750   -1.6640 c3        1 MOL     -0.506127
     46 C16        -1.1240   -1.9350   -0.9400 c         1 MOL      0.752975
     47 O7         -0.5610   -0.9590   -0.3430 o         1 MOL     -0.673172
     48 O8         -0.6840   -3.1220   -0.9570 o         1 MOL     -0.673172
     49 H21        -2.7410   -2.8320    0.7120 hn        1 MOL      0.327218
     50 H22        -4.6130   -1.4380   -1.2000 h1        1 MOL      0.124843
     51 H23        -2.4960   -0.8430   -2.3550 hc        1 MOL      0.114995
     52 H24        -2.7270   -2.5010   -2.3300 hc        1 MOL      0.114995
     53 N5         -3.8470    1.0020   -0.6060 n         1 MOL     -0.274380
     54 C17        -3.8420    2.3030   -0.0450 c3        1 MOL      0.013897
     55 C18        -2.5010    2.7930    0.4560 c         1 MOL      0.487321
     56 O9         -1.4420    2.0720    0.3820 o         1 MOL     -0.549193
     57 H25        -3.8810    0.9180   -1.6100 hn        1 MOL      0.266061
     58 H26        -4.5810    2.2110    0.7580 h1        1 MOL      0.052931
     59 H27        -4.2290    3.0650   -0.7200 h1        1 MOL      0.052931
     60 N6         -2.5020    3.9910    1.0470 n         1 MOL     -0.591936
     61 C19        -1.3400    4.7940    1.4710 c3        1 MOL      0.400142
     62 C20        -1.5340    6.3190    1.2500 c         1 MOL      0.290028
     63 O10        -2.6440    6.8040    1.1890 o         1 MOL     -0.503257
     64 C21        -1.1200    4.5220    2.9890 c3        1 MOL     -0.182440
     65 C22        -0.7830    3.0360    3.2610 c         1 MOL      0.703367
     66 O11         0.1830    2.5880    2.6110 o         1 MOL     -0.665550
     67 O12        -1.3460    2.4600    4.2260 o         1 MOL     -0.665550
     68 H28        -3.3940    4.2970    1.3960 hn        1 MOL      0.342874
     69 H29        -0.4400    4.3900    1.0230 h1        1 MOL     -0.012253
     70 H30        -2.0540    4.6910    3.5150 hc        1 MOL      0.039046
     71 H31        -0.2600    5.0260    3.4340 hc        1 MOL      0.039046
     72 N7         -0.4910    7.1370    1.1960 n         1 MOL     -0.321650
     73 C23         0.9370    6.9050    1.2040 c3        1 MOL     -0.185301
     74 C24         1.4880    6.2590   -0.0870 c         1 MOL      0.649490
     75 O13         0.9850    6.4080   -1.1860 o         1 MOL     -0.485627
     76 H32        -0.8610    8.0670    1.1080 hn        1 MOL      0.298179
     77 H33         1.0760    6.2610    2.0740 h1        1 MOL      0.103691
     78 H34         1.4570    7.8490    1.3580 h1        1 MOL      0.103691
     79 N8          2.5780    5.5100    0.1650 n         1 MOL     -0.593470
     80 C25         3.1360    4.5550   -0.8770 c3        1 MOL     -0.099083
     81 C26         2.1620    3.3710   -1.0970 c         1 MOL      0.759965
     82 O14         1.5490    2.9290   -0.1800 o         1 MOL     -0.651212
     83 C27         4.5390    4.1010   -0.4620 c3        1 MOL      0.483529
     84 C28         5.1270    3.2360   -1.5500 c3        1 MOL     -0.231351
     85 O15         4.3770    3.4510    0.7620 oh        1 MOL     -0.657183
     86 H35         2.9860    5.4440    1.0870 hn        1 MOL      0.298306
     87 H36         3.2280    5.0780   -1.8230 h1        1 MOL      0.048898
     88 H37         5.1380    4.9920   -0.2950 h1        1 MOL     -0.025749
     89 H38         3.8500    4.0170    1.3240 ho        1 MOL      0.416050
     90 H39         6.2080    3.3680   -1.4830 hc        1 MOL      0.053362
     91 H40         4.7970    2.1910   -1.5210 hc        1 MOL      0.053362
     92 H41         4.8770    3.5840   -2.5460 hc        1 MOL      0.053362
     93 N9          2.0150    3.0570   -2.4070 n         1 MOL     -0.468080
     94 C29         1.1160    2.0470   -3.1170 c3        1 MOL     -0.146476
     95 C30         1.4100    0.5970   -2.6280 c         1 MOL      0.619299
     96 O16         1.7810    0.3660   -1.4970 o         1 MOL     -0.553475
     97 C31        -0.3820    2.3530   -2.9450 c3        1 MOL      0.150844
     98 C32        -0.7760    3.7970   -3.2810 c3        1 MOL      0.157995
     99 C33        -1.2710    1.3940   -3.7140 c3        1 MOL     -0.363476
    100 C34        -1.9470    4.2970   -2.4540 c3        1 MOL     -0.117631
    101 H42         2.5340    3.5680   -3.1060 hn        1 MOL      0.299414
    102 H43         1.3430    2.0960   -4.1810 h1        1 MOL      0.074302
    103 H44        -0.6320    2.1900   -1.8980 hc        1 MOL      0.061390
    104 H45        -1.0730    3.7810   -4.3320 hc        1 MOL     -0.055364
    105 H46         0.0220    4.5150   -3.1260 hc        1 MOL     -0.055364
    106 H47        -1.1900    1.5010   -4.7930 hc        1 MOL      0.088039
    107 H48        -1.1250    0.3370   -3.5130 hc        1 MOL      0.088039
    108 H49        -2.2880    1.6290   -3.3770 hc        1 MOL      0.088039
    109 H50        -1.7330    4.3940   -1.3870 hc        1 MOL      0.035529
    110 H51        -2.2300    5.2780   -2.8410 hc        1 MOL      0.035529
    111 H52        -2.7560    3.5810   -2.5650 hc        1 MOL      0.035529
    112 N10         1.4870   -0.3400   -3.5910 n         1 MOL     -0.593531
    113 C35         1.7800   -1.7350   -3.3970 c3        1 MOL      0.022577
    114 C36         3.2590   -2.1590   -3.4200 c         1 MOL      0.537086
    115 O17         3.6420   -3.1260   -4.0910 o         1 MOL     -0.556339
    116 C37         0.9060   -2.6500   -4.3700 c3        1 MOL      0.551856
    117 C38         1.0370   -2.2740   -5.8980 c3        1 MOL     -0.350925
    118 O18        -0.4170   -2.6170   -4.0290 oh        1 MOL     -0.634309
    119 H53         1.2650   -0.0360   -4.5290 hn        1 MOL      0.328541
    120 H54         1.3940   -1.9710   -2.4000 h1        1 MOL      0.013696
    121 H55         1.2360   -3.6920   -4.3250 h1        1 MOL     -0.033609
    122 H56        -0.7890   -3.5010   -4.0610 ho        1 MOL      0.402352
    123 H57         0.6610   -1.2680   -6.0640 hc        1 MOL      0.071848
    124 H58         2.0740   -2.3580   -6.2090 hc        1 MOL      0.071848
    125 H59         0.3970   -2.9940   -6.4200 hc        1 MOL      0.071848
    126 N11         3.9940   -1.5140   -2.5560 n         1 MOL     -0.320631
    127 C39         5.4010   -1.7860   -2.2790 c3        1 MOL     -0.090497
    128 C40         5.5970   -1.5120   -0.8350 c         1 MOL      0.574544
    129 O19         4.7950   -0.7410   -0.2630 o         1 MOL     -0.507334
    130 C41         6.3980   -0.9960   -3.1190 c3        1 MOL      0.358945
    131 C42         6.3880   -1.3490   -4.6300 c3        1 MOL     -0.278344
    132 O20         6.2940    0.4020   -3.0540 oh        1 MOL     -0.635461
    133 H60         3.6000   -0.6950   -2.1100 hn        1 MOL      0.225342
    134 H61         5.5100   -2.8610   -2.4310 h1        1 MOL      0.104104
    135 H62         7.3800   -1.2830   -2.7550 h1        1 MOL      0.021423
    136 H63         5.5190    0.7270   -3.5190 ho        1 MOL      0.401946
    137 H64         6.9640   -0.6590   -5.2430 hc        1 MOL      0.071709
    138 H65         6.7400   -2.3860   -4.6850 hc        1 MOL      0.071709
    139 H66         5.3610   -1.2520   -4.9980 hc        1 MOL      0.071709
    140 N12         6.4720   -2.3200   -0.1970 n         1 MOL     -0.534852
    141 C43         6.7870   -2.1670    1.2750 c3        1 MOL      0.297040
    142 C44         5.5230   -2.2370    2.2000 c         1 MOL      0.285109
    143 O21         5.3670   -1.3340    3.0420 o         1 MOL     -0.469039
    144 C45         7.7040   -1.0040    1.4910 c3        1 MOL     -0.501298
    145 C46         8.9480   -0.8970    0.6010 c3        1 MOL      0.310466
    146 C47         9.7230    0.3000    1.0930 c3        1 MOL     -0.013950
    147 C48        10.9860    0.5330    0.2720 c3        1 MOL     -0.147701
    148 N13        12.0130   -0.5510    0.4810 n4        1 MOL     -0.140945
    149 H67         7.0970   -2.9180   -0.7110 hn        1 MOL      0.270407
    150 H68         7.3730   -3.0570    1.5300 h1        1 MOL      0.028123
    151 H69         8.0680   -0.8770    2.5160 hc        1 MOL      0.151023
    152 H70         7.1830   -0.0670    1.2770 hc        1 MOL      0.151023
    153 H71         8.6310   -0.9140   -0.4440 hc        1 MOL     -0.063285
    154 H72         9.6040   -1.7560    0.7100 hc        1 MOL     -0.063285
    155 H73        10.0430    0.1370    2.1190 hc        1 MOL      0.053992
    156 H74         9.0610    1.1680    1.0790 hc        1 MOL      0.053992
    157 H75        11.4480    1.4640    0.5880 hx        1 MOL      0.109967
    158 H76        10.7300    0.4110   -0.7820 hx        1 MOL      0.109967
    159 H77        12.7410   -0.4670   -0.2140 hn        1 MOL      0.201573
    160 H78        12.4560   -0.4040    1.3780 hn        1 MOL      0.201573
    161 H79        11.5850   -1.4560    0.4450 hn        1 MOL      0.201573
    162 N14         4.5850   -3.1500    1.9820 n         1 MOL     -0.219818
    163 C49         3.2250   -3.1160    2.5410 c3        1 MOL      0.137701
    164 C50         2.1070   -2.7280    1.5220 c         1 MOL      0.401048
    165 O22         1.5470   -1.6060    1.6280 o         1 MOL     -0.598643
    166 C51         2.9000   -4.3260    3.4650 c3        1 MOL      0.110037
    167 C52         3.7360   -4.4380    4.8020 c3        1 MOL     -0.104080
    168 C53         3.2910   -5.5160    5.8120 c         1 MOL      0.619212
    169 O23         2.4290   -5.1180    6.6650 o         1 MOL     -0.603025
    170 O24         3.7580   -6.6810    5.6820 o         1 MOL     -0.603025
    171 H80         4.8630   -3.9080    1.3670 hn        1 MOL      0.187242
    172 H81         3.3020   -2.2370    3.1850 h1        1 MOL      0.079522
    173 H82         2.9970   -5.2700    2.9230 hc        1 MOL      0.002252
    174 H83         1.8450   -4.2930    3.7530 hc        1 MOL      0.002252
    175 H84         3.6710   -3.4890    5.3250 hc        1 MOL     -0.011966
    176 H85         4.7570   -4.6630    4.4640 hc        1 MOL     -0.011966
    177 N15         1.7390   -3.4940    0.5340 n         1 MOL     -0.355719
    178 C54         2.2270   -4.8720    0.1960 c3        1 MOL     -0.078392
    179 H86         2.6760   -4.8630   -0.7980 h1        1 MOL      0.049775
    180 H87         2.9710   -5.1840    0.9280 h1        1 MOL      0.049775
    181 H88         1.3890   -5.5680    0.2090 h1        1 MOL      0.049775
    182 H89         0.9570   -3.1470   -0.0030 hn        1 MOL      0.414537
    183 Ca1         0.6690    0.7350    0.8930 Ca        1 MOL      1.705041
    184 O25        -1.2030    0.0310    2.8930 oh        1 MOL     -0.943547
    185 H90        -1.4240    0.8470    3.3530 ho        1 MOL      0.456022
    186 H91        -1.9710   -0.1540    2.3580 ho        1 MOL      0.456022
    187 O26         3.1320    1.0750    1.5110 oh        1 MOL     -0.943547
    188 H92         3.7400    0.3940    1.2260 ho        1 MOL      0.456022
    189 H93         3.5760    1.8970    1.3100 ho        1 MOL      0.456022
@<TRIPOS>BOND
     1    1    2 1   
     2    1    4 1   
     3    1    5 1   
     4    1    6 1   
     5    2    3 2   
     6    2    7 1   
     7    7    8 1   
     8    7   15 1   
     9    8    9 1   
    10    8   11 1   
    11    8   16 1   
    12    9   10 2   
    13    9   19 1   
    14   11   12 1   
    15   11   17 1   
    16   11   18 1   
    17   12   13 1   
    18   12   14 1   
    19   19   20 1   
    20   19   28 1   
    21   20   21 1   
    22   20   23 1   
    23   20   29 1   
    24   21   22 2   
    25   21   41 1   
    26   23   24 1   
    27   23   30 1   
    28   23   31 1   
    29   24   25 1   
    30   24   32 1   
    31   24   33 1   
    32   25   26 1   
    33   25   34 1   
    34   25   35 1   
    35   26   27 1   
    36   26   36 1   
    37   26   37 1   
    38   27   38 1   
    39   27   39 1   
    40   27   40 1   
    41   41   42 1   
    42   41   49 1   
    43   42   43 1   
    44   42   45 1   
    45   42   50 1   
    46   43   44 2   
    47   43   53 1   
    48   45   46 1   
    49   45   51 1   
    50   45   52 1   
    51   46   47 1   
    52   46   48 1   
    53   53   54 1   
    54   53   57 1   
    55   54   55 1   
    56   54   58 1   
    57   54   59 1   
    58   55   56 2   
    59   55   60 1   
    60   60   61 1   
    61   60   68 1   
    62   61   62 1   
    63   61   64 1   
    64   61   69 1   
    65   62   63 2   
    66   62   72 1   
    67   64   65 1   
    68   64   70 1   
    69   64   71 1   
    70   65   66 1   
    71   65   67 1   
    72   72   73 1   
    73   72   76 1   
    74   73   74 1   
    75   73   77 1   
    76   73   78 1   
    77   74   75 2   
    78   74   79 1   
    79   79   80 1   
    80   79   86 1   
    81   80   81 1   
    82   80   83 1   
    83   80   87 1   
    84   81   82 2   
    85   81   93 1   
    86   83   84 1   
    87   83   85 1   
    88   83   88 1   
    89   84   90 1   
    90   84   91 1   
    91   84   92 1   
    92   85   89 1   
    93   93   94 1   
    94   93  101 1   
    95   94   95 1   
    96   94   97 1   
    97   94  102 1   
    98   95   96 2   
    99   95  112 1   
   100   97   98 1   
   101   97   99 1   
   102   97  103 1   
   103   98  100 1   
   104   98  104 1   
   105   98  105 1   
   106   99  106 1   
   107   99  107 1   
   108   99  108 1   
   109  100  109 1   
   110  100  110 1   
   111  100  111 1   
   112  112  113 1   
   113  112  119 1   
   114  113  114 1   
   115  113  116 1   
   116  113  120 1   
   117  114  115 2   
   118  114  126 1   
   119  116  117 1   
   120  116  118 1   
   121  116  121 1   
   122  117  123 1   
   123  117  124 1   
   124  117  125 1   
   125  118  122 1   
   126  126  127 1   
   127  126  133 1   
   128  127  128 1   
   129  127  130 1   
   130  127  134 1   
   131  128  129 2   
   132  128  140 1   
   133  130  131 1   
   134  130  132 1   
   135  130  135 1   
   136  131  137 1   
   137  131  138 1   
   138  131  139 1   
   139  132  136 1   
   140  140  141 1   
   141  140  149 1   
   142  141  142 1   
   143  141  144 1   
   144  141  150 1   
   145  142  143 2   
   146  142  162 1   
   147  144  145 1   
   148  144  151 1   
   149  144  152 1   
   150  145  146 1   
   151  145  153 1   
   152  145  154 1   
   153  146  147 1   
   154  146  155 1   
   155  146  156 1   
   156  147  148 1   
   157  147  157 1   
   158  147  158 1   
   159  148  159 1   
   160  148  160 1   
   161  148  161 1   
   162  162  163 1   
   163  162  171 1   
   164  163  164 1   
   165  163  166 1   
   166  163  172 1   
   167  164  165 2   
   168  164  177 1   
   169  166  167 1   
   170  166  173 1   
   171  166  174 1   
   172  167  168 1   
   173  167  175 1   
   174  167  176 1   
   175  168  169 1   
   176  168  170 1   
   177  177  178 1   
   178  177  182 1   
   179  178  179 1   
   180  178  180 1   
   181  178  181 1   
   182  184  185 1   
   183  184  186 1   
   184  187  188 1   
   185  187  189 1   
@<TRIPOS>SUBSTRUCTURE
     1 MOL         1 TEMP              0 ****  ****    0 ROOT
