@<TRIPOS>MOLECULE
MOL
  181   177     1     0     0
SMALL
resp


@<TRIPOS>ATOM
      1 C1          0.3690    6.8510   -1.6670 c3        1 MOL     -0.446079
      2 C2          1.6500    6.4220   -1.0000 c         1 MOL      0.757993
      3 O1          2.0070    6.9600    0.0150 o         1 MOL     -0.576453
      4 H1         -0.4000    7.0050   -0.9110 hc        1 MOL      0.107321
      5 H2          0.5350    7.7820   -2.2090 hc        1 MOL      0.107321
      6 H3          0.0450    6.0780   -2.3630 hc        1 MOL      0.107321
      7 N1          2.3800    5.4650   -1.6620 n         1 MOL     -0.617279
      8 C3          3.7620    5.1800   -1.3640 c3        1 MOL      0.206140
      9 C4          4.0010    4.1770   -0.2380 c         1 MOL      0.479756
     10 O2          3.6580    3.0140   -0.3580 o         1 MOL     -0.488052
     11 C5          4.4670    4.6650   -2.6440 c3        1 MOL     -0.501296
     12 C6          5.8250    4.1020   -2.2200 c         1 MOL      0.875126
     13 O3          6.1900    2.9840   -2.5880 o         1 MOL     -0.750672
     14 O4          6.6230    4.7240   -1.5230 o         1 MOL     -0.750672
     15 H4          2.0590    5.2090   -2.5820 hn        1 MOL      0.327848
     16 H5          4.3160    6.0980   -1.2010 h1        1 MOL      0.037768
     17 H6          4.4350    5.4750   -3.3790 hc        1 MOL      0.090232
     18 H7          3.8710    3.8180   -2.9920 hc        1 MOL      0.090232
     19 N2          4.4000    4.6480    0.9710 n         1 MOL     -0.518078
     20 C7          4.5900    3.7830    2.1500 c3        1 MOL      0.537611
     21 C8          3.2180    3.3400    2.6840 c         1 MOL      0.333301
     22 O5          2.2130    3.9730    2.3510 o         1 MOL     -0.507018
     23 C9          5.4680    4.4600    3.2300 c3        1 MOL     -0.463862
     24 H8          4.7800    5.5810    1.0280 hn        1 MOL      0.268439
     25 H9          5.1860    2.9580    1.7550 h1        1 MOL      0.053145
     26 H10         6.3330    4.9510    2.7940 hc        1 MOL      0.106353
     27 H11         4.8990    5.2550    3.7250 hc        1 MOL      0.106353
     28 H12         5.8950    3.7460    3.9310 hc        1 MOL      0.106353
     29 N3          3.0900    2.3140    3.5340 n         1 MOL     -0.485652
     30 C10         4.0510    1.2830    3.7570 c3        1 MOL      0.272659
     31 C11         4.2210    0.3840    2.5250 c         1 MOL      0.068389
     32 O6          3.4120    0.4890    1.5980 o         1 MOL     -0.333041
     33 C12         3.6430    0.4410    4.9650 c3        1 MOL     -0.446838
     34 C13         2.1690   -0.0640    5.0360 c         1 MOL      0.783656
     35 O7          1.7560   -0.6330    6.0940 o         1 MOL     -0.675521
     36 O8          1.4830    0.0210    4.0030 o         1 MOL     -0.675521
     37 H13         2.1760    2.1410    3.9220 hn        1 MOL      0.351768
     38 H14         4.9800    1.8130    3.9600 h1        1 MOL      0.021207
     39 H15         3.7780    1.0700    5.8500 hc        1 MOL      0.092309
     40 H16         4.2810   -0.4530    4.9370 hc        1 MOL      0.092309
     41 N4          5.2970   -0.4010    2.3320 n         1 MOL     -0.311903
     42 C14         5.7990   -0.8450    1.0740 c3        1 MOL     -0.071011
     43 C15         6.7070    0.1430    0.3300 c         1 MOL      0.639331
     44 O9          6.9590    1.2810    0.7690 o         1 MOL     -0.533160
     45 H17         5.8640   -0.3800    3.1650 hn        1 MOL      0.265706
     46 H18         4.8930   -1.0060    0.5010 h1        1 MOL      0.091795
     47 H19         6.4140   -1.7440    1.1820 h1        1 MOL      0.091795
     48 N5          7.4650   -0.3550   -0.6880 n         1 MOL     -0.548396
     49 C16         7.4140   -1.6110   -1.3380 c3        1 MOL      0.070368
     50 C17         6.3650   -1.6560   -2.4740 c         1 MOL      0.644712
     51 O10         6.5760   -1.1360   -3.6000 o         1 MOL     -0.525222
     52 C18         8.8090   -1.6780   -1.9600 c3        1 MOL     -0.311733
     53 C19         9.1410   -3.0740   -2.4470 c         1 MOL      0.676389
     54 N6         10.3850   -3.3630   -2.8570 n         1 MOL     -0.807182
     55 O11         8.3360   -3.9860   -2.4370 o         1 MOL     -0.560105
     56 H20         8.2170    0.2300   -1.0320 hn        1 MOL      0.346486
     57 H21         7.2580   -2.4220   -0.6250 h1        1 MOL      0.051354
     58 H22         9.6270   -1.4340   -1.2870 hc        1 MOL      0.109141
     59 H23         8.9150   -0.9500   -2.7640 hc        1 MOL      0.109141
     60 H24        11.1090   -2.6760   -2.7120 hn        1 MOL      0.360564
     61 H25        10.5580   -4.3490   -3.0100 hn        1 MOL      0.360564
     62 N7          5.3360   -2.4650   -2.2010 n         1 MOL     -0.348792
     63 C20         4.1380   -2.5460   -3.0770 c3        1 MOL     -0.193429
     64 C21         2.9450   -3.3730   -2.5790 c         1 MOL      0.640441
     65 O12         1.8870   -3.3560   -3.1970 o         1 MOL     -0.556047
     66 H26         5.2600   -2.8500   -1.2670 hn        1 MOL      0.135296
     67 H27         4.4150   -2.9190   -4.0610 h1        1 MOL      0.127059
     68 H28         3.7250   -1.5360   -3.1690 h1        1 MOL      0.127059
     69 N8          3.0610   -4.0540   -1.3890 n         1 MOL     -0.503138
     70 C22         1.9430   -4.6960   -0.6340 c3        1 MOL      0.049733
     71 C23         0.8100   -3.6450   -0.5560 c         1 MOL      0.388695
     72 O13         0.9830   -2.4890   -0.1170 o         1 MOL     -0.519065
     73 C24         2.3260   -5.1930    0.7380 c3        1 MOL      0.021178
     74 C25         1.1730   -5.8110    1.5040 c3        1 MOL     -0.053926
     75 O14         3.2410   -6.2080    0.4290 oh        1 MOL     -0.578851
     76 H29         3.8860   -3.8600   -0.8410 hn        1 MOL      0.354488
     77 H30         1.5690   -5.5870   -1.1350 h1        1 MOL      0.108162
     78 H31         2.8300   -4.3280    1.1860 h1        1 MOL      0.073926
     79 H32         3.3220   -6.5990    1.3090 ho        1 MOL      0.381419
     80 H33         0.7190   -5.0540    2.1360 hc        1 MOL      0.037875
     81 H34         0.3610   -6.2360    0.9190 hc        1 MOL      0.037875
     82 H35         1.5260   -6.6620    2.0940 hc        1 MOL      0.037875
     83 N9         -0.3880   -4.0470   -0.9440 n         1 MOL      0.064822
     84 C26        -1.6640   -3.3280   -0.9330 c3        1 MOL     -0.497027
     85 C27        -2.5060   -3.6400    0.3640 c         1 MOL      0.529780
     86 O15        -2.5080   -4.7600    0.8080 o         1 MOL     -0.533816
     87 C28        -2.4540   -3.6640   -2.2270 c3        1 MOL      0.378237
     88 C29        -3.9290   -3.2830   -2.1910 c3        1 MOL      0.058972
     89 C30        -1.7980   -3.2630   -3.5740 c3        1 MOL     -0.202520
     90 C31        -4.7170   -3.4660   -3.5670 c3        1 MOL     -0.219404
     91 H36        -0.3760   -4.9670   -1.3610 hn        1 MOL      0.132627
     92 H37        -1.4940   -2.2510   -1.0680 h1        1 MOL      0.200307
     93 H38        -2.4760   -4.7550   -2.2920 hc        1 MOL     -0.054533
     94 H39        -4.1310   -2.2800   -1.8010 hc        1 MOL     -0.004292
     95 H40        -4.4250   -3.9320   -1.4760 hc        1 MOL     -0.004292
     96 H41        -2.3970   -3.5510   -4.4440 hc        1 MOL      0.039212
     97 H42        -1.7490   -2.1750   -3.6000 hc        1 MOL      0.039212
     98 H43        -0.8070   -3.7010   -3.6980 hc        1 MOL      0.039212
     99 H44        -4.2620   -2.8030   -4.2990 hc        1 MOL      0.035337
    100 H45        -4.5350   -4.4970   -3.8680 hc        1 MOL      0.035337
    101 H46        -5.7620   -3.2080   -3.4480 hc        1 MOL      0.035337
    102 N10        -3.1020   -2.6460    1.0050 n         1 MOL     -0.385001
    103 C32        -3.7980   -2.6280    2.2710 c3        1 MOL      0.140982
    104 C33        -5.2330   -2.0270    2.2270 c         1 MOL      0.491793
    105 O16        -6.0160   -2.2360    3.1240 o         1 MOL     -0.570847
    106 C34        -2.8500   -2.0710    3.3410 c3        1 MOL     -0.227899
    107 C35        -1.4030   -2.5940    3.3790 c         1 MOL      0.701114
    108 O17        -1.1650   -3.3720    4.3260 o         1 MOL     -0.661751
    109 O18        -0.5100   -2.0640    2.6780 o         1 MOL     -0.661751
    110 H47        -2.8230   -1.7340    0.6730 hn        1 MOL      0.177509
    111 H48        -3.9600   -3.6830    2.4830 h1        1 MOL      0.060244
    112 H49        -3.3600   -2.2190    4.3070 hc        1 MOL      0.068134
    113 H50        -2.8000   -1.0000    3.1590 hc        1 MOL      0.068134
    114 N11        -5.5670   -1.2850    1.2160 n         1 MOL     -0.424175
    115 C36        -6.7130   -0.4540    1.0350 c3        1 MOL      0.444488
    116 C37        -6.4330    0.8360    0.2270 c         1 MOL      0.218352
    117 O19        -6.9050    0.9610   -0.9200 o         1 MOL     -0.460119
    118 C38        -7.8570   -1.4040    0.4560 c3        1 MOL     -0.347124
    119 C39        -9.1210   -0.6440    0.1840 ca        1 MOL      0.251148
    120 C40        -9.8220   -0.0780    1.2320 ca        1 MOL     -0.237429
    121 C41        -9.6920   -0.6850   -1.0710 ca        1 MOL     -0.237429
    122 C42       -11.1350    0.4750    1.0580 ca        1 MOL     -0.061486
    123 C43       -10.9810   -0.1580   -1.2960 ca        1 MOL     -0.061486
    124 C44       -11.7190    0.3840   -0.2100 ca        1 MOL     -0.192486
    125 H51        -4.8470   -1.1440    0.5170 hn        1 MOL      0.187150
    126 H52        -7.0700   -0.0910    1.9960 h1        1 MOL     -0.035125
    127 H53        -8.0940   -2.2120    1.1530 hc        1 MOL      0.111272
    128 H54        -7.4800   -1.9520   -0.4080 hc        1 MOL      0.111272
    129 H55        -9.3390   -0.1700    2.1950 ha        1 MOL      0.124734
    130 H56        -9.2130   -1.2010   -1.8930 ha        1 MOL      0.124734
    131 H57       -11.7200    0.7730    1.9200 ha        1 MOL      0.092019
    132 H58       -11.4490   -0.3400   -2.2490 ha        1 MOL      0.092019
    133 H59       -12.7580    0.6440   -0.3510 ha        1 MOL      0.107356
    134 N12        -5.6180    1.7930    0.8230 n         1 MOL     -0.054101
    135 C45        -5.5230    3.1980    0.2780 c3        1 MOL     -0.021236
    136 C46        -4.7960    3.2850   -1.0820 c         1 MOL      0.243563
    137 O20        -5.0940    4.2670   -1.7800 o         1 MOL     -0.488514
    138 C47        -4.7590    4.0040    1.3310 c3        1 MOL     -0.132443
    139 C48        -4.1670    2.9750    2.2900 c3        1 MOL     -0.059261
    140 C49        -5.1980    1.8170    2.2030 c3        1 MOL      0.056440
    141 H60        -6.4950    3.6610    0.1320 h1        1 MOL      0.095106
    142 H61        -3.9480    4.6510    0.9860 hc        1 MOL      0.068845
    143 H62        -5.4800    4.6620    1.8180 hc        1 MOL      0.068845
    144 H63        -3.2050    2.5400    2.0000 hc        1 MOL      0.044186
    145 H64        -4.2180    3.3130    3.3200 hc        1 MOL      0.044186
    146 H65        -4.7640    0.8710    2.5270 h1        1 MOL      0.022033
    147 H66        -6.0870    1.9870    2.8090 h1        1 MOL      0.022033
    148 N13        -4.1010    2.2640   -1.5220 n         1 MOL     -0.089816
    149 C50        -3.5870    2.0670   -2.9690 c3        1 MOL     -0.227119
    150 C51        -4.7980    2.0450   -3.9800 c         1 MOL      0.382524
    151 O21        -4.8710    2.8160   -4.9930 o         1 MOL     -0.525550
    152 C52        -2.8180    0.6840   -3.0960 c3        1 MOL      0.066746
    153 C53        -1.6910    0.4760   -2.1210 c3        1 MOL     -0.192794
    154 C54        -2.0930    0.1500   -0.6180 c         1 MOL      0.363917
    155 O22        -1.1580    0.2400    0.2820 o         1 MOL     -0.564293
    156 O23        -3.2890    0.0020   -0.2930 o         1 MOL     -0.564293
    157 H67        -4.1140    1.4430   -0.9460 hn        1 MOL      0.318158
    158 H68        -2.7760    2.7380   -3.2570 h1        1 MOL      0.148316
    159 H69        -2.4010    0.6000   -4.0950 hc        1 MOL      0.011991
    160 H70        -3.5200   -0.1400   -2.9970 hc        1 MOL      0.011991
    161 H71        -1.1830    1.4350   -2.0800 hc        1 MOL      0.062927
    162 H72        -1.0260   -0.3180   -2.4770 hc        1 MOL      0.062927
    163 N14        -5.7970    1.2130   -3.6630 n         1 MOL     -0.085107
    164 C55        -6.8900    0.9300   -4.5310 c3        1 MOL     -0.221716
    165 H73        -7.8190    1.2560   -4.0630 h1        1 MOL      0.087790
    166 H74        -6.7540    1.4610   -5.4740 h1        1 MOL      0.087790
    167 H75        -6.9360   -0.1420   -4.7200 h1        1 MOL      0.087790
    168 H76        -5.7350    0.7450   -2.7650 hn        1 MOL      0.210393
    169 Ca1         0.9550   -0.4110    1.4680 Ca        1 MOL      1.701991
    170 O24         2.6950   -2.3980    2.8320 oh        1 MOL     -0.865616
    171 H77         3.3660   -3.0710    2.7360 ho        1 MOL      0.409502
    172 H78         2.2430   -2.6190    3.6470 ho        1 MOL      0.409502
    173 O25        -1.2110    1.5600    2.7060 oh        1 MOL     -0.865616
    174 H79        -1.8050    1.2830    2.0040 ho        1 MOL      0.409502
    175 H80        -0.8590    2.3970    2.4130 ho        1 MOL      0.409502
    176 O26         2.2660   -0.3490   -1.0010 oh        1 MOL     -0.865616
    177 H81         1.8830   -0.4600   -1.8680 ho        1 MOL      0.409502
    178 H82         3.0800    0.1300   -1.1530 ho        1 MOL      0.409502
    179 O27         1.1410    2.1180    0.2100 oh        1 MOL     -0.865616
    180 H83         1.9980    2.5400    0.1200 ho        1 MOL      0.409502
    181 H84         0.5320    2.7100   -0.2300 ho        1 MOL      0.409502
@<TRIPOS>BOND
     1    1    2 1   
     2    1    4 1   
     3    1    5 1   
     4    1    6 1   
     5    2    3 2   
     6    2    7 1   
     7    7    8 1   
     8    7   15 1   
     9    8    9 1   
    10    8   11 1   
    11    8   16 1   
    12    9   10 2   
    13    9   19 1   
    14   11   12 1   
    15   11   17 1   
    16   11   18 1   
    17   12   13 1   
    18   12   14 1   
    19   19   20 1   
    20   19   24 1   
    21   20   21 1   
    22   20   23 1   
    23   20   25 1   
    24   21   22 2   
    25   21   29 1   
    26   23   26 1   
    27   23   27 1   
    28   23   28 1   
    29   29   30 1   
    30   29   37 1   
    31   30   31 1   
    32   30   33 1   
    33   30   38 1   
    34   31   32 2   
    35   31   41 1   
    36   33   34 1   
    37   33   39 1   
    38   33   40 1   
    39   34   35 1   
    40   34   36 1   
    41   41   42 1   
    42   41   45 1   
    43   42   43 1   
    44   42   46 1   
    45   42   47 1   
    46   43   44 2   
    47   43   48 1   
    48   48   49 1   
    49   48   56 1   
    50   49   50 1   
    51   49   52 1   
    52   49   57 1   
    53   50   51 2   
    54   50   62 1   
    55   52   53 1   
    56   52   58 1   
    57   52   59 1   
    58   53   54 1   
    59   53   55 2   
    60   54   60 1   
    61   54   61 1   
    62   62   63 1   
    63   62   66 1   
    64   63   64 1   
    65   63   67 1   
    66   63   68 1   
    67   64   65 2   
    68   64   69 1   
    69   69   70 1   
    70   69   76 1   
    71   70   71 1   
    72   70   73 1   
    73   70   77 1   
    74   71   72 2   
    75   71   83 1   
    76   73   74 1   
    77   73   75 1   
    78   73   78 1   
    79   74   80 1   
    80   74   81 1   
    81   74   82 1   
    82   75   79 1   
    83   83   84 1   
    84   83   91 1   
    85   84   85 1   
    86   84   87 1   
    87   84   92 1   
    88   85   86 2   
    89   85  102 1   
    90   87   88 1   
    91   87   89 1   
    92   87   93 1   
    93   88   90 1   
    94   88   94 1   
    95   88   95 1   
    96   89   96 1   
    97   89   97 1   
    98   89   98 1   
    99   90   99 1   
   100   90  100 1   
   101   90  101 1   
   102  102  103 1   
   103  102  110 1   
   104  103  104 1   
   105  103  106 1   
   106  103  111 1   
   107  104  105 2   
   108  104  114 1   
   109  106  107 1   
   110  106  112 1   
   111  106  113 1   
   112  107  108 1   
   113  107  109 1   
   114  114  115 1   
   115  114  125 1   
   116  115  116 1   
   117  115  118 1   
   118  115  126 1   
   119  116  117 2   
   120  116  134 1   
   121  118  119 1   
   122  118  127 1   
   123  118  128 1   
   124  119  120 ar  
   125  119  121 ar  
   126  120  122 ar  
   127  120  129 1   
   128  121  123 ar  
   129  121  130 1   
   130  122  124 ar  
   131  122  131 1   
   132  123  124 ar  
   133  123  132 1   
   134  124  133 1   
   135  134  135 1   
   136  134  140 1   
   137  135  136 1   
   138  135  138 1   
   139  135  141 1   
   140  136  137 2   
   141  136  148 1   
   142  138  139 1   
   143  138  142 1   
   144  138  143 1   
   145  139  140 1   
   146  139  144 1   
   147  139  145 1   
   148  140  146 1   
   149  140  147 1   
   150  148  149 1   
   151  148  157 1   
   152  149  150 1   
   153  149  152 1   
   154  149  158 1   
   155  150  151 2   
   156  150  163 1   
   157  152  153 1   
   158  152  159 1   
   159  152  160 1   
   160  153  154 1   
   161  153  161 1   
   162  153  162 1   
   163  154  155 1   
   164  154  156 1   
   165  163  164 1   
   166  163  168 1   
   167  164  165 1   
   168  164  166 1   
   169  164  167 1   
   170  170  171 1   
   171  170  172 1   
   172  173  174 1   
   173  173  175 1   
   174  176  177 1   
   175  176  178 1   
   176  179  180 1   
   177  179  181 1   
@<TRIPOS>SUBSTRUCTURE
     1 MOL         1 TEMP              0 ****  ****    0 ROOT
