@<TRIPOS>MOLECULE
MOL
  182   178     1     0     0
SMALL
resp


@<TRIPOS>ATOM
      1 C1          0.5600   -5.4150    5.5880 c3        1 MOL     -0.345936
      2 C2          0.7370   -4.7270    4.1960 c         1 MOL      0.781402
      3 O1         -0.0750   -4.9740    3.2880 o         1 MOL     -0.623760
      4 H1          1.4970   -5.8910    5.8790 hc        1 MOL      0.094774
      5 H2          0.2860   -4.6670    6.3310 hc        1 MOL      0.094774
      6 H3         -0.2240   -6.1700    5.5240 hc        1 MOL      0.094774
      7 N1          1.7330   -3.9270    4.0120 n         1 MOL     -0.642413
      8 C3          2.0260   -3.4850    2.6200 c3        1 MOL     -0.009083
      9 C4          2.2380   -4.6490    1.6450 c         1 MOL      0.627338
     10 O2          2.7700   -5.6880    1.9960 o         1 MOL     -0.551704
     11 C5          3.1760   -2.4610    2.5500 c3        1 MOL      0.128556
     12 C6          3.2760   -1.6700    1.2640 c         1 MOL      0.297251
     13 O3          4.0370   -0.6770    1.2660 o         1 MOL     -0.595287
     14 O4          2.5880   -1.9540    0.2310 o         1 MOL     -0.595287
     15 H4          2.2560   -3.6680    4.8340 hn        1 MOL      0.338305
     16 H5          1.1710   -2.9410    2.2320 h1        1 MOL     -0.021458
     17 H6          4.0850   -3.0200    2.7540 hc        1 MOL      0.028901
     18 H7          3.0680   -1.7710    3.3910 hc        1 MOL      0.028901
     19 N2          1.7810   -4.4880    0.4040 n         1 MOL     -0.260318
     20 C7          1.8410   -5.5280   -0.6310 c3        1 MOL     -0.121059
     21 C8          3.1080   -5.4200   -1.5000 c         1 MOL      0.540686
     22 O5          3.5560   -6.4660   -2.0510 o         1 MOL     -0.556199
     23 C9          0.5850   -5.3710   -1.5410 c3        1 MOL     -0.038532
     24 C10        -0.6900   -5.8400   -0.8900 c3        1 MOL      0.037087
     25 C11        -1.9850   -5.6660   -1.6710 c3        1 MOL     -0.028608
     26 C12        -2.1410   -4.2090   -2.2560 c3        1 MOL      0.155365
     27 N3         -3.3500   -3.9800   -3.0790 n4        1 MOL     -0.318451
     28 H8          1.5950   -3.5420    0.0930 hn        1 MOL      0.201849
     29 H9          1.8190   -6.5500   -0.2510 h1        1 MOL      0.126918
     30 H10         0.7300   -5.8400   -2.5150 hc        1 MOL      0.015582
     31 H11         0.4720   -4.3090   -1.7210 hc        1 MOL      0.015582
     32 H12        -0.8940   -5.2030   -0.0270 hc        1 MOL      0.029445
     33 H13        -0.6580   -6.8510   -0.4900 hc        1 MOL      0.029445
     34 H14        -2.8450   -6.0300   -1.1120 hc        1 MOL      0.026265
     35 H15        -2.0220   -6.3400   -2.5370 hc        1 MOL      0.026265
     36 H16        -1.2810   -4.0090   -2.8980 hx        1 MOL      0.010050
     37 H17        -2.1780   -3.4420   -1.4840 hx        1 MOL      0.010050
     38 H18        -4.2220   -3.9700   -2.5480 hn        1 MOL      0.260264
     39 H19        -3.3990   -3.0750   -3.5260 hn        1 MOL      0.260264
     40 H20        -3.5130   -4.7150   -3.7550 hn        1 MOL      0.260264
     41 N4          3.7170   -4.2550   -1.5950 n         1 MOL     -0.479349
     42 C13         4.9430   -4.0090   -2.3970 c3        1 MOL      0.062989
     43 C14         6.0620   -3.3350   -1.5860 c         1 MOL      0.468692
     44 O6          7.0590   -3.0170   -2.0990 o         1 MOL     -0.529807
     45 C15         4.6690   -3.1940   -3.6000 c3        1 MOL     -0.021085
     46 C16         3.9840   -1.8420   -3.3820 c         1 MOL      0.697843
     47 O7          3.9630   -1.3870   -2.2080 o         1 MOL     -0.717790
     48 O8          3.6210   -1.2020   -4.4580 o         1 MOL     -0.717790
     49 H21         3.2420   -3.4330   -1.2420 hn        1 MOL      0.316854
     50 H22         5.3220   -4.9750   -2.7080 h1        1 MOL      0.101257
     51 H23         4.0300   -3.7890   -4.2470 hc        1 MOL      0.017949
     52 H24         5.6030   -3.1400   -4.1520 hc        1 MOL      0.017949
     53 N5          5.7770   -2.9050   -0.3200 n         1 MOL     -0.161869
     54 C17         6.8370   -2.3600    0.5860 c3        1 MOL     -0.427729
     55 C18         7.2520   -0.8990    0.3360 c         1 MOL      0.707969
     56 O9          8.0940   -0.4100    1.0400 o         1 MOL     -0.585347
     57 H25         4.8190   -2.9860   -0.0010 hn        1 MOL      0.096820
     58 H26         7.7450   -2.9590    0.4620 h1        1 MOL      0.183251
     59 H27         6.4750   -2.4910    1.6070 h1        1 MOL      0.183251
     60 N6          6.8390   -0.2710   -0.7810 n         1 MOL     -0.427137
     61 C19         7.1770    1.1820   -1.1340 c3        1 MOL      0.280773
     62 C20         6.0650    2.1920   -0.8160 c         1 MOL      0.265966
     63 O10         4.8630    1.9920   -0.9730 o         1 MOL     -0.471404
     64 C21         7.6690    1.3770   -2.6120 c3        1 MOL     -0.357284
     65 C22         7.8310    2.7790   -3.1220 c         1 MOL      0.649104
     66 N7          9.0250    3.2020   -3.2310 n         1 MOL     -0.727404
     67 O11         6.7860    3.3910   -3.4180 o         1 MOL     -0.560617
     68 H28         6.0720   -0.7290   -1.2510 hn        1 MOL      0.271395
     69 H29         8.0320    1.4360   -0.5230 h1        1 MOL      0.019596
     70 H30         6.9480    0.9080   -3.2780 hc        1 MOL      0.120311
     71 H31         8.5730    0.7690   -2.7010 hc        1 MOL      0.120311
     72 H32         9.7830    2.5350   -3.1700 hn        1 MOL      0.354603
     73 H33         9.3210    4.0830   -3.6400 hn        1 MOL      0.354603
     74 N8          6.3400    3.4720   -0.5350 n         1 MOL     -0.169966
     75 C23         5.3370    4.5140   -0.4060 c3        1 MOL     -0.248488
     76 C24         4.3290    4.3530    0.7490 c         1 MOL      0.623849
     77 O12         4.6950    4.3860    1.9490 o         1 MOL     -0.540527
     78 H34         7.3310    3.6620   -0.4470 hn        1 MOL      0.234128
     79 H35         4.7680    4.5990   -1.3260 h1        1 MOL      0.125225
     80 H36         5.7990    5.4890   -0.2540 h1        1 MOL      0.125225
     81 N9          3.0390    4.3570    0.4510 n         1 MOL     -0.514227
     82 C25         1.8580    4.3000    1.3320 c3        1 MOL      0.283046
     83 C26         1.5770    2.7930    1.8430 c         1 MOL      0.490991
     84 O13         2.1980    1.8610    1.3110 o         1 MOL     -0.483925
     85 C27         0.7350    5.1420    0.7140 c3        1 MOL     -0.197458
     86 C28         0.8370    6.6260    0.7520 ca        1 MOL      0.170709
     87 C29         0.1940    7.4270   -0.2380 ca        1 MOL     -0.309878
     88 C30         1.6370    7.2800    1.7270 ca        1 MOL     -0.309878
     89 C31         0.2390    8.8240   -0.1830 ca        1 MOL     -0.100717
     90 C32         1.7860    8.6930    1.7390 ca        1 MOL     -0.100717
     91 C33         1.0660    9.4520    0.7440 ca        1 MOL      0.174742
     92 O14         1.3500   10.7750    0.6570 oh        1 MOL     -0.431250
     93 H37         2.7030    4.5640   -0.4830 hn        1 MOL      0.286926
     94 H38         2.2000    4.7320    2.2730 h1        1 MOL      0.042762
     95 H39        -0.1890    4.9330    1.2530 hc        1 MOL      0.051933
     96 H40         0.3950    4.8600   -0.2890 hc        1 MOL      0.051933
     97 H41        -0.3790    6.8620   -0.9590 ha        1 MOL      0.162197
     98 H42         2.2020    6.7540    2.4770 ha        1 MOL      0.162197
     99 H43        -0.3220    9.3840   -0.9230 ha        1 MOL      0.131476
    100 H44         2.4300    9.2670    2.3920 ha        1 MOL      0.131476
    101 H45         0.7610   11.2110    0.0280 ho        1 MOL      0.352642
    102 N10         0.5760    2.5220    2.6810 n         1 MOL     -0.599637
    103 C34         0.0090    1.2150    3.0210 c3        1 MOL      0.176177
    104 C35        -0.3500    0.2340    1.9040 c         1 MOL      0.319288
    105 O15         0.2510    0.1210    0.8320 o         1 MOL     -0.378570
    106 C36         0.9750    0.5260    4.0920 c3        1 MOL      0.151301
    107 C37         0.5110   -0.8200    4.5990 c3        1 MOL     -0.101711
    108 C38         1.2430    1.4860    5.2410 c3        1 MOL     -0.482060
    109 C39        -0.7490   -0.8990    5.3820 c3        1 MOL     -0.220933
    110 H46         0.1730    3.3050    3.1960 hn        1 MOL      0.311680
    111 H47        -0.8570    1.4720    3.6170 h1        1 MOL      0.052972
    112 H48         1.9150    0.3000    3.6020 hc        1 MOL      0.090670
    113 H49         1.2830   -1.2380    5.2470 hc        1 MOL      0.066598
    114 H50         0.4270   -1.4450    3.7140 hc        1 MOL      0.066598
    115 H51         1.5000    0.8880    6.1170 hc        1 MOL      0.134655
    116 H52         2.0390    2.1770    4.9870 hc        1 MOL      0.134655
    117 H53         0.2780    1.8820    5.5490 hc        1 MOL      0.134655
    118 H54        -0.5460   -0.3030    6.2690 hc        1 MOL      0.053351
    119 H55        -1.5670   -0.4990    4.7800 hc        1 MOL      0.053351
    120 H56        -0.9770   -1.9310    5.6710 hc        1 MOL      0.053351
    121 N11        -1.4280   -0.5740    2.0710 n         1 MOL     -0.496658
    122 C40        -1.8900   -1.7550    1.2840 c3        1 MOL      0.184089
    123 C41        -3.1950   -1.5300    0.6700 c         1 MOL      0.527868
    124 O16        -3.5380   -2.1530   -0.2820 o         1 MOL     -0.558748
    125 C42        -2.0520   -2.9200    2.1730 c3        1 MOL      0.210458
    126 O17        -2.8540   -2.5870    3.2780 oh        1 MOL     -0.614998
    127 H57        -1.9200   -0.4050    2.9360 hn        1 MOL      0.335925
    128 H58        -1.2320   -1.9220    0.4350 h1        1 MOL      0.046939
    129 H59        -1.0410   -3.1190    2.5270 h1        1 MOL      0.003775
    130 H60        -2.3960   -3.7930    1.6050 h1        1 MOL      0.003775
    131 H61        -3.0260   -3.4380    3.6890 ho        1 MOL      0.420493
    132 N12        -3.9780   -0.5630    1.1410 n         1 MOL     -0.505570
    133 C43        -5.1400   -0.0650    0.4540 c3        1 MOL      0.227331
    134 C44        -4.8290    0.6820   -0.8310 c         1 MOL      0.638613
    135 O18        -3.6850    1.1240   -0.8950 o         1 MOL     -0.608401
    136 C45        -5.9040    0.8170    1.4410 c3        1 MOL     -0.091509
    137 H62        -3.5880    0.0060    1.8790 hn        1 MOL      0.245647
    138 H63        -5.7410   -0.9440    0.2490 h1        1 MOL      0.071712
    139 H64        -6.7880    1.2210    0.9440 hc        1 MOL      0.031766
    140 H65        -6.1580    0.2120    2.3050 hc        1 MOL      0.031766
    141 H66        -5.3470    1.7140    1.7330 hc        1 MOL      0.031766
    142 N13        -5.6380    0.8910   -1.8290 n         1 MOL     -0.680898
    143 C46        -6.9190    0.3780   -2.0590 c3        1 MOL      0.613199
    144 C47        -7.8910    1.4360   -2.7420 c         1 MOL      0.322347
    145 O19        -7.4020    2.3500   -3.4270 o         1 MOL     -0.505549
    146 C48        -6.6690   -1.0090   -2.6980 c3        1 MOL     -0.496469
    147 H67        -5.2970    1.3490   -2.6680 hn        1 MOL      0.323315
    148 H68        -7.4310    0.0530   -1.1530 h1        1 MOL     -0.137940
    149 H69        -7.5880   -1.5410   -2.9380 hc        1 MOL      0.109074
    150 H70        -6.2080   -0.7650   -3.6550 hc        1 MOL      0.109074
    151 H71        -6.0340   -1.6500   -2.0920 hc        1 MOL      0.109074
    152 N14        -9.2050    1.3140   -2.5440 n         1 MOL     -0.401580
    153 C49        -9.9020    0.5150   -1.4370 c3        1 MOL     -0.128914
    154 C50        -9.4930    0.9430   -0.0030 c         1 MOL      0.459153
    155 O20        -9.1540    0.0990    0.8260 o         1 MOL     -0.513724
    156 C51       -11.3700    0.4120   -1.6270 c3        1 MOL      0.196149
    157 C52       -12.0580   -0.6960   -0.7590 c3        1 MOL     -0.423869
    158 C53       -13.5440   -0.3510   -0.9150 c         1 MOL      0.768803
    159 O21       -14.1610    0.0420    0.0750 o         1 MOL     -0.671426
    160 O22       -14.1710   -0.2930   -1.9880 o         1 MOL     -0.671426
    161 H72        -9.8330    1.7940   -3.1820 hn        1 MOL      0.307566
    162 H73        -9.5330   -0.4900   -1.6260 h1        1 MOL      0.119575
    163 H74       -11.5260    0.1740   -2.6850 hc        1 MOL     -0.016408
    164 H75       -11.8180    1.3790   -1.4120 hc        1 MOL     -0.016408
    165 H76       -11.7200   -0.6780    0.2810 hc        1 MOL      0.099542
    166 H77       -11.8580   -1.6790   -1.1740 hc        1 MOL      0.099542
    167 N15        -9.5620    2.2540    0.1950 n         1 MOL     -0.207322
    168 C54        -9.0120    2.8980    1.4160 c3        1 MOL     -0.077394
    169 H78        -8.4930    2.1510    2.0180 h1        1 MOL      0.065614
    170 H79        -8.3120    3.6840    1.1300 h1        1 MOL      0.065614
    171 H80        -9.8260    3.3300    1.9980 h1        1 MOL      0.065614
    172 H81        -9.8490    2.8480   -0.5680 hn        1 MOL      0.238740
    173 Ca1         2.5080    0.3710   -0.9420 Ca        1 MOL      1.696989
    174 O23         0.9020    2.2990   -1.6150 oh        1 MOL     -0.885520
    175 H82         0.0330    2.4430   -1.2360 ho        1 MOL      0.428485
    176 H83         0.8520    2.6890   -2.4860 ho        1 MOL      0.428485
    177 O24         2.8710    1.3370   -3.3980 oh        1 MOL     -0.885520
    178 H84         2.9110    2.0920   -3.9790 ho        1 MOL      0.428485
    179 H85         3.1840    0.6030   -3.9360 ho        1 MOL      0.428485
    180 O25         0.7510   -0.9690   -2.2160 oh        1 MOL     -0.885520
    181 H86         0.7960   -1.6870   -2.8460 ho        1 MOL      0.428485
    182 H87        -0.1390   -0.6470   -2.2790 ho        1 MOL      0.428485
@<TRIPOS>BOND
     1    1    2 1   
     2    1    4 1   
     3    1    5 1   
     4    1    6 1   
     5    2    3 2   
     6    2    7 1   
     7    7    8 1   
     8    7   15 1   
     9    8    9 1   
    10    8   11 1   
    11    8   16 1   
    12    9   10 2   
    13    9   19 1   
    14   11   12 1   
    15   11   17 1   
    16   11   18 1   
    17   12   13 1   
    18   12   14 1   
    19   19   20 1   
    20   19   28 1   
    21   20   21 1   
    22   20   23 1   
    23   20   29 1   
    24   21   22 2   
    25   21   41 1   
    26   23   24 1   
    27   23   30 1   
    28   23   31 1   
    29   24   25 1   
    30   24   32 1   
    31   24   33 1   
    32   25   26 1   
    33   25   34 1   
    34   25   35 1   
    35   26   27 1   
    36   26   36 1   
    37   26   37 1   
    38   27   38 1   
    39   27   39 1   
    40   27   40 1   
    41   41   42 1   
    42   41   49 1   
    43   42   43 1   
    44   42   45 1   
    45   42   50 1   
    46   43   44 2   
    47   43   53 1   
    48   45   46 1   
    49   45   51 1   
    50   45   52 1   
    51   46   47 1   
    52   46   48 1   
    53   53   54 1   
    54   53   57 1   
    55   54   55 1   
    56   54   58 1   
    57   54   59 1   
    58   55   56 2   
    59   55   60 1   
    60   60   61 1   
    61   60   68 1   
    62   61   62 1   
    63   61   64 1   
    64   61   69 1   
    65   62   63 2   
    66   62   74 1   
    67   64   65 1   
    68   64   70 1   
    69   64   71 1   
    70   65   66 1   
    71   65   67 2   
    72   66   72 1   
    73   66   73 1   
    74   74   75 1   
    75   74   78 1   
    76   75   76 1   
    77   75   79 1   
    78   75   80 1   
    79   76   77 2   
    80   76   81 1   
    81   81   82 1   
    82   81   93 1   
    83   82   83 1   
    84   82   85 1   
    85   82   94 1   
    86   83   84 2   
    87   83  102 1   
    88   85   86 1   
    89   85   95 1   
    90   85   96 1   
    91   86   87 ar  
    92   86   88 ar  
    93   87   89 ar  
    94   87   97 1   
    95   88   90 ar  
    96   88   98 1   
    97   89   91 ar  
    98   89   99 1   
    99   90   91 ar  
   100   90  100 1   
   101   91   92 1   
   102   92  101 1   
   103  102  103 1   
   104  102  110 1   
   105  103  104 1   
   106  103  106 1   
   107  103  111 1   
   108  104  105 2   
   109  104  121 1   
   110  106  107 1   
   111  106  108 1   
   112  106  112 1   
   113  107  109 1   
   114  107  113 1   
   115  107  114 1   
   116  108  115 1   
   117  108  116 1   
   118  108  117 1   
   119  109  118 1   
   120  109  119 1   
   121  109  120 1   
   122  121  122 1   
   123  121  127 1   
   124  122  123 1   
   125  122  125 1   
   126  122  128 1   
   127  123  124 2   
   128  123  132 1   
   129  125  126 1   
   130  125  129 1   
   131  125  130 1   
   132  126  131 1   
   133  132  133 1   
   134  132  137 1   
   135  133  134 1   
   136  133  136 1   
   137  133  138 1   
   138  134  135 2   
   139  134  142 1   
   140  136  139 1   
   141  136  140 1   
   142  136  141 1   
   143  142  143 1   
   144  142  147 1   
   145  143  144 1   
   146  143  146 1   
   147  143  148 1   
   148  144  145 2   
   149  144  152 1   
   150  146  149 1   
   151  146  150 1   
   152  146  151 1   
   153  152  153 1   
   154  152  161 1   
   155  153  154 1   
   156  153  156 1   
   157  153  162 1   
   158  154  155 2   
   159  154  167 1   
   160  156  157 1   
   161  156  163 1   
   162  156  164 1   
   163  157  158 1   
   164  157  165 1   
   165  157  166 1   
   166  158  159 1   
   167  158  160 1   
   168  167  168 1   
   169  167  172 1   
   170  168  169 1   
   171  168  170 1   
   172  168  171 1   
   173  174  175 1   
   174  174  176 1   
   175  177  178 1   
   176  177  179 1   
   177  180  181 1   
   178  180  182 1   
@<TRIPOS>SUBSTRUCTURE
     1 MOL         1 TEMP              0 ****  ****    0 ROOT
