@<TRIPOS>MOLECULE
MOL
  192   187     1     0     0
SMALL
resp


@<TRIPOS>ATOM
      1 C1         12.3640    4.2820   -3.9520 c3        1 MOL     -0.242118
      2 C2         12.2330    3.2540   -2.8120 c         1 MOL      0.544059
      3 O1         13.0230    2.2690   -2.7430 o         1 MOL     -0.558488
      4 H1         11.3740    4.6500   -4.2230 hc        1 MOL      0.071994
      5 H2         12.9830    5.1160   -3.6220 hc        1 MOL      0.071994
      6 H3         12.8240    3.8080   -4.8190 hc        1 MOL      0.071994
      7 N1         11.3770    3.5520   -1.8350 n         1 MOL     -0.269313
      8 C3         11.1300    2.7950   -0.5680 c3        1 MOL     -0.234398
      9 C4          9.7360    2.1080   -0.5370 c         1 MOL      0.568326
     10 O2          8.7150    2.8350   -0.7550 o         1 MOL     -0.746323
     11 C5         11.5810    3.6250    0.6190 c3        1 MOL     -0.023827
     12 C6         10.9200    4.9940    0.4490 c         1 MOL      0.642972
     13 O3          9.7220    5.2030    0.6610 o         1 MOL     -0.710282
     14 O4         11.6140    5.9320    0.0170 o         1 MOL     -0.710282
     15 H4         10.9350    4.4610   -1.9130 hn        1 MOL      0.258385
     16 H5         11.8260    1.9490   -0.6220 h1        1 MOL      0.111000
     17 H6         12.6620    3.7280    0.6960 hc        1 MOL      0.069309
     18 H7         11.2930    3.1710    1.5680 hc        1 MOL      0.069309
     19 N2          9.5690    0.7800   -0.2510 n         1 MOL     -0.351345
     20 C7          8.2080    0.1390   -0.2670 c3        1 MOL     -0.024356
     21 C8          7.3220    0.3470    0.9940 c         1 MOL      0.673137
     22 O5          7.7730    0.1330    2.1210 o         1 MOL     -0.523651
     23 C9          8.3340   -1.3460   -0.6450 c3        1 MOL     -0.457216
     24 C10         6.9310   -1.8920   -1.0020 c3        1 MOL      0.425263
     25 C11         7.0710   -3.1100   -1.8830 c3        1 MOL     -0.361590
     26 C12         8.0570   -4.0990   -1.3350 c3        1 MOL      0.302895
     27 N3          7.9160   -5.4350   -2.0090 n4        1 MOL     -0.502393
     28 H8         10.3850    0.2400   -0.0130 hn        1 MOL      0.299176
     29 H9          7.5840    0.5960   -1.0340 h1        1 MOL      0.105555
     30 H10         8.7330   -1.9640    0.1570 hc        1 MOL      0.130488
     31 H11         8.9990   -1.5450   -1.4950 hc        1 MOL      0.130488
     32 H12         6.3540   -1.1240   -1.5110 hc        1 MOL     -0.045154
     33 H13         6.3800   -2.1470   -0.1060 hc        1 MOL     -0.045154
     34 H14         7.3700   -2.9150   -2.9140 hc        1 MOL      0.075677
     35 H15         6.0950   -3.6040   -1.8310 hc        1 MOL      0.075677
     36 H16         7.9010   -4.1210   -0.2610 hx        1 MOL      0.042044
     37 H17         9.0700   -3.6910   -1.4570 hx        1 MOL      0.042044
     38 H18         8.7440   -6.0000   -1.9440 hn        1 MOL      0.349383
     39 H19         7.1330   -5.8540   -1.5390 hn        1 MOL      0.349383
     40 H20         7.8380   -5.4460   -3.0170 hn        1 MOL      0.349383
     41 N4          6.0680    0.7020    0.7650 n         1 MOL     -0.822136
     42 C13         4.9310    0.5540    1.6090 c3        1 MOL      0.706542
     43 C14         3.6850    0.2520    0.7910 c         1 MOL      0.307181
     44 O6          3.4420    0.7900   -0.2720 o         1 MOL     -0.466938
     45 C15         4.6560    1.8240    2.4300 c3        1 MOL     -0.312215
     46 C16         5.0070    3.1240    1.6910 c         1 MOL      0.850455
     47 O7          4.0860    3.5880    0.9840 o         1 MOL     -0.765865
     48 O8          6.1000    3.6600    1.8330 o         1 MOL     -0.765865
     49 H21         5.8020    0.9860   -0.1670 hn        1 MOL      0.302727
     50 H22         5.0970   -0.2080    2.3780 h1        1 MOL     -0.005848
     51 H23         5.2990    1.8700    3.3050 hc        1 MOL      0.050762
     52 H24         3.6170    1.7970    2.7550 hc        1 MOL      0.050762
     53 N5          2.7940   -0.6060    1.2380 n         1 MOL     -0.427392
     54 C17         2.8380   -1.3140    2.4680 c3        1 MOL      0.066185
     55 C18         3.6150   -2.6410    2.3620 c         1 MOL      0.400850
     56 O9          4.5390   -2.7720    1.4740 o         1 MOL     -0.529602
     57 H25         1.9410   -0.6590    0.6890 hn        1 MOL      0.363608
     58 H26         1.8060   -1.6020    2.6640 h1        1 MOL      0.008451
     59 H27         3.1990   -0.7680    3.3460 h1        1 MOL      0.008451
     60 N6          3.4420   -3.6310    3.2170 n         1 MOL     -0.224971
     61 C19         4.0370   -4.9390    2.9360 c3        1 MOL      0.074185
     62 C20         3.2490   -5.8370    1.9760 c         1 MOL      0.370365
     63 O10         3.8760   -6.7090    1.3670 o         1 MOL     -0.511353
     64 C21         4.2020   -5.7470    4.2320 c3        1 MOL     -0.165572
     65 C22         5.1830   -5.0180    5.1290 c         1 MOL      0.663575
     66 O11         6.2250   -4.6790    4.5290 o         1 MOL     -0.677270
     67 O12         4.8470   -4.6840    6.3180 o         1 MOL     -0.677270
     68 H28         2.8690   -3.4470    4.0240 hn        1 MOL      0.257737
     69 H29         5.0110   -4.8950    2.4500 h1        1 MOL      0.079173
     70 H30         4.6680   -6.7010    3.9820 hc        1 MOL      0.008713
     71 H31         3.2050   -5.7910    4.6840 hc        1 MOL      0.008713
     72 N7          1.9200   -5.5860    1.8690 n         1 MOL     -0.132518
     73 C23         1.0900   -6.4590    1.0710 c3        1 MOL     -0.214402
     74 C24         0.6290   -5.8460   -0.2560 c         1 MOL      0.615393
     75 O13        -0.3180   -6.3820   -0.8250 o         1 MOL     -0.570579
     76 H32         1.4340   -4.9110    2.4400 hn        1 MOL      0.190340
     77 H33         0.2650   -6.7970    1.7020 h1        1 MOL      0.108221
     78 H34         1.6760   -7.2600    0.6200 h1        1 MOL      0.108221
     79 N8          1.0940   -4.6320   -0.6290 n         1 MOL     -0.288583
     80 C25         0.6180   -3.7740   -1.6850 c3        1 MOL      0.131070
     81 C26         0.0680   -2.4870   -1.1350 c         1 MOL      0.261698
     82 O14         0.4460   -2.0790   -0.0310 o         1 MOL     -0.447444
     83 C27         1.6370   -3.4650   -2.8170 c3        1 MOL      0.208759
     84 C28         2.9150   -2.7970   -2.2630 c3        1 MOL     -0.180345
     85 O15         2.0410   -4.6220   -3.5100 oh        1 MOL     -0.616869
     86 H35         1.8530   -4.2810   -0.0620 hn        1 MOL      0.129689
     87 H36        -0.1330   -4.3930   -2.1850 h1        1 MOL      0.063718
     88 H37         1.1650   -2.7870   -3.5230 h1        1 MOL      0.023822
     89 H38         2.5460   -4.2630   -4.2500 ho        1 MOL      0.387924
     90 H39         3.7140   -2.8280   -3.0090 hc        1 MOL      0.042783
     91 H40         2.5970   -1.8190   -1.9010 hc        1 MOL      0.042783
     92 H41         3.2850   -3.3350   -1.4020 hc        1 MOL      0.042783
     93 N9         -0.8460   -1.8510   -1.8890 n         1 MOL     -0.320818
     94 C29        -1.4210   -0.5370   -1.6170 c3        1 MOL     -0.054045
     95 C30        -2.7220   -0.6100   -0.7890 c         1 MOL      0.511200
     96 O16        -2.9550    0.2700    0.0910 o         1 MOL     -0.522625
     97 C31        -1.6520    0.1620   -2.9560 c3        1 MOL      0.108949
     98 C32        -0.3820    0.0970   -3.8810 c3        1 MOL     -0.061749
     99 C33        -1.9990    1.6920   -2.9280 c3        1 MOL     -0.399526
    100 C34         0.8550    0.7290   -3.0980 c3        1 MOL     -0.072447
    101 H42        -1.1430   -2.2850   -2.7540 hn        1 MOL      0.260719
    102 H43        -0.6610    0.0000   -1.0520 h1        1 MOL      0.098304
    103 H44        -2.4840   -0.3660   -3.4070 hc        1 MOL     -0.002331
    104 H45        -0.4750    0.6780   -4.7950 hc        1 MOL      0.019487
    105 H46        -0.1330   -0.9000   -4.2420 hc        1 MOL      0.019487
    106 H47        -3.0510    1.7400   -2.6320 hc        1 MOL      0.126044
    107 H48        -1.4570    2.1890   -2.1180 hc        1 MOL      0.126044
    108 H49        -1.7910    2.2760   -3.8200 hc        1 MOL      0.126044
    109 H50         0.6380    1.7560   -2.8220 hc        1 MOL      0.024965
    110 H51         1.2110    0.2030   -2.2140 hc        1 MOL      0.024965
    111 H52         1.6910    0.7680   -3.7910 hc        1 MOL      0.024965
    112 N10        -3.5680   -1.6270   -1.0670 n         1 MOL     -0.291874
    113 C35        -4.8390   -1.7450   -0.4080 c3        1 MOL     -0.119559
    114 C36        -5.7950   -2.2420   -1.4610 c         1 MOL      0.576298
    115 O17        -5.4610   -2.7760   -2.5140 o         1 MOL     -0.531597
    116 C37        -4.7180   -2.6590    0.8670 c3        1 MOL      0.443034
    117 C38        -3.9470   -3.9180    0.8050 c3        1 MOL     -0.530463
    118 O18        -4.2080   -1.7890    1.8700 oh        1 MOL     -0.640035
    119 H53        -3.3560   -2.3450   -1.7410 hn        1 MOL      0.206678
    120 H54        -5.2140   -0.7830   -0.0750 h1        1 MOL      0.124746
    121 H55        -5.7040   -2.9700    1.2320 h1        1 MOL      0.035527
    122 H56        -3.2750   -1.6520    1.6960 ho        1 MOL      0.416302
    123 H57        -2.8700   -3.7560    0.7670 hc        1 MOL      0.136545
    124 H58        -4.1880   -4.4700    1.7150 hc        1 MOL      0.136545
    125 H59        -4.3380   -4.5240   -0.0160 hc        1 MOL      0.136545
    126 N11        -7.0540   -2.1390   -1.1440 n         1 MOL     -0.491729
    127 C39        -8.2640   -2.3760   -1.9250 c3        1 MOL      0.105672
    128 C40        -9.2170   -1.2440   -1.9740 c         1 MOL      0.619401
    129 O19        -9.6850   -0.9000   -3.0770 o         1 MOL     -0.554258
    130 C41        -9.0410   -3.6690   -1.5790 c3        1 MOL      0.190469
    131 C42       -10.4670   -3.7700   -2.1210 c3        1 MOL     -0.208975
    132 O20        -9.2550   -3.7800   -0.2320 oh        1 MOL     -0.655889
    133 H60        -7.2410   -1.8290   -0.1930 hn        1 MOL      0.246326
    134 H61        -8.0060   -2.5870   -2.9610 h1        1 MOL      0.058871
    135 H62        -8.4780   -4.5230   -1.9630 h1        1 MOL      0.057832
    136 H63        -9.4950   -4.6340    0.1250 ho        1 MOL      0.433384
    137 H64       -11.1460   -3.1750   -1.5170 hc        1 MOL      0.059525
    138 H65       -10.5710   -3.5340   -3.1800 hc        1 MOL      0.059525
    139 H66       -10.7750   -4.8170   -2.1780 hc        1 MOL      0.059525
    140 N12        -9.4910   -0.6850   -0.7570 n         1 MOL     -0.619834
    141 C43       -10.3810    0.5280   -0.5660 c3        1 MOL      0.142988
    142 C44        -9.7750    1.4660    0.6130 c         1 MOL      0.595439
    143 O21        -9.1040    0.9380    1.4830 o         1 MOL     -0.479639
    144 C45       -11.8440   -0.0320   -0.2580 c3        1 MOL     -0.104019
    145 C46       -12.9280    0.9660   -0.6730 c3        1 MOL     -0.062543
    146 C47       -14.2210    0.4440   -0.2280 c3        1 MOL     -0.039311
    147 C48       -15.5150    1.2530   -0.4830 c3        1 MOL      0.142792
    148 N13       -16.7330    0.4940   -0.6210 n4        1 MOL     -0.408961
    149 H67        -9.1360   -1.2130    0.0270 hn        1 MOL      0.336345
    150 H68       -10.5130    1.1370   -1.4550 h1        1 MOL      0.054504
    151 H69       -12.0270   -0.1620    0.8060 hc        1 MOL      0.062044
    152 H70       -12.0710   -0.9280   -0.8350 hc        1 MOL      0.062044
    153 H71       -12.7460    1.0560   -1.7460 hc        1 MOL      0.026404
    154 H72       -12.7580    1.9210   -0.1730 hc        1 MOL      0.026404
    155 H73       -14.1830    0.2290    0.8410 hc        1 MOL      0.034984
    156 H74       -14.3410   -0.5340   -0.6840 hc        1 MOL      0.034984
    157 H75       -15.4170    1.9200   -1.3420 hx        1 MOL      0.052065
    158 H76       -15.6270    1.9950    0.3170 hx        1 MOL      0.052065
    159 H77       -16.6010   -0.1340   -1.4000 hn        1 MOL      0.296235
    160 H78       -16.9160    0.0190    0.2510 hn        1 MOL      0.296235
    161 H79       -17.4520    1.1790   -0.8130 hn        1 MOL      0.296235
    162 N14       -10.1750    2.7450    0.6780 n         1 MOL     -0.616380
    163 C49        -9.6720    3.6990    1.6620 c3        1 MOL      0.400526
    164 C50        -8.1350    3.7780    1.4810 c         1 MOL      0.298276
    165 O22        -7.4660    3.3180    2.3710 o         1 MOL     -0.506115
    166 C51       -10.3850    5.0260    1.3980 c3        1 MOL     -0.160921
    167 C52       -11.8460    4.9410    2.0810 c3        1 MOL     -0.152717
    168 C53       -12.5170    6.2630    2.3320 c         1 MOL      0.701731
    169 O23       -12.6770    6.7350    3.4750 o         1 MOL     -0.665959
    170 O24       -12.8700    6.9300    1.2970 o         1 MOL     -0.665959
    171 H80       -10.7580    3.1530   -0.0380 hn        1 MOL      0.299550
    172 H81        -9.7800    3.3740    2.6920 h1        1 MOL      0.031223
    173 H82       -10.5390    5.1530    0.3250 hc        1 MOL      0.076339
    174 H83        -9.8400    5.8460    1.8530 hc        1 MOL      0.076339
    175 H84       -11.7590    4.4290    3.0390 hc        1 MOL      0.006596
    176 H85       -12.5920    4.3640    1.5360 hc        1 MOL      0.006596
    177 N15        -7.5000    4.2590    0.4340 n         1 MOL     -0.324130
    178 C54        -7.9400    4.7810   -0.8790 c3        1 MOL     -0.090077
    179 H86        -8.9870    5.0750   -0.8200 h1        1 MOL      0.057505
    180 H87        -7.3340    5.6470   -1.1470 h1        1 MOL      0.057505
    181 H88        -7.8220    4.0060   -1.6360 h1        1 MOL      0.057505
    182 H89        -6.4990    4.1760    0.5150 hn        1 MOL      0.301662
    183 Ca1         7.3460    4.9380   -0.0620 Ca        1 MOL      1.777832
    184 O25         5.7740    3.1760   -1.4930 oh        1 MOL     -0.909900
    185 H90         6.3470    2.6430   -2.0420 ho        1 MOL      0.448777
    186 H91         4.9210    3.1370   -1.9210 ho        1 MOL      0.448777
    187 O26         7.3740    7.0540    1.3740 oh        1 MOL     -0.909900
    188 H92         8.2790    7.3780    1.3710 ho        1 MOL      0.448777
    189 H93         6.9230    7.6210    2.0040 ho        1 MOL      0.448777
    190 O27         5.0880    6.5520   -0.3720 oh        1 MOL     -0.909900
    191 H94         4.9840    7.4180    0.0300 ho        1 MOL      0.448777
    192 H95         4.1950    6.3020   -0.6190 ho        1 MOL      0.448777
@<TRIPOS>BOND
     1    1    2 1   
     2    1    4 1   
     3    1    5 1   
     4    1    6 1   
     5    2    3 2   
     6    2    7 1   
     7    7    8 1   
     8    7   15 1   
     9    8    9 1   
    10    8   11 1   
    11    8   16 1   
    12    9   10 2   
    13    9   19 1   
    14   11   12 1   
    15   11   17 1   
    16   11   18 1   
    17   12   13 1   
    18   12   14 1   
    19   19   20 1   
    20   19   28 1   
    21   20   21 1   
    22   20   23 1   
    23   20   29 1   
    24   21   22 2   
    25   21   41 1   
    26   23   24 1   
    27   23   30 1   
    28   23   31 1   
    29   24   25 1   
    30   24   32 1   
    31   24   33 1   
    32   25   26 1   
    33   25   34 1   
    34   25   35 1   
    35   26   27 1   
    36   26   36 1   
    37   26   37 1   
    38   27   38 1   
    39   27   39 1   
    40   27   40 1   
    41   41   42 1   
    42   41   49 1   
    43   42   43 1   
    44   42   45 1   
    45   42   50 1   
    46   43   44 2   
    47   43   53 1   
    48   45   46 1   
    49   45   51 1   
    50   45   52 1   
    51   46   47 1   
    52   46   48 1   
    53   53   54 1   
    54   53   57 1   
    55   54   55 1   
    56   54   58 1   
    57   54   59 1   
    58   55   56 2   
    59   55   60 1   
    60   60   61 1   
    61   60   68 1   
    62   61   62 1   
    63   61   64 1   
    64   61   69 1   
    65   62   63 2   
    66   62   72 1   
    67   64   65 1   
    68   64   70 1   
    69   64   71 1   
    70   65   66 1   
    71   65   67 1   
    72   72   73 1   
    73   72   76 1   
    74   73   74 1   
    75   73   77 1   
    76   73   78 1   
    77   74   75 2   
    78   74   79 1   
    79   79   80 1   
    80   79   86 1   
    81   80   81 1   
    82   80   83 1   
    83   80   87 1   
    84   81   82 2   
    85   81   93 1   
    86   83   84 1   
    87   83   85 1   
    88   83   88 1   
    89   84   90 1   
    90   84   91 1   
    91   84   92 1   
    92   85   89 1   
    93   93   94 1   
    94   93  101 1   
    95   94   95 1   
    96   94   97 1   
    97   94  102 1   
    98   95   96 2   
    99   95  112 1   
   100   97   98 1   
   101   97   99 1   
   102   97  103 1   
   103   98  100 1   
   104   98  104 1   
   105   98  105 1   
   106   99  106 1   
   107   99  107 1   
   108   99  108 1   
   109  100  109 1   
   110  100  110 1   
   111  100  111 1   
   112  112  113 1   
   113  112  119 1   
   114  113  114 1   
   115  113  116 1   
   116  113  120 1   
   117  114  115 2   
   118  114  126 1   
   119  116  117 1   
   120  116  118 1   
   121  116  121 1   
   122  117  123 1   
   123  117  124 1   
   124  117  125 1   
   125  118  122 1   
   126  126  127 1   
   127  126  133 1   
   128  127  128 1   
   129  127  130 1   
   130  127  134 1   
   131  128  129 2   
   132  128  140 1   
   133  130  131 1   
   134  130  132 1   
   135  130  135 1   
   136  131  137 1   
   137  131  138 1   
   138  131  139 1   
   139  132  136 1   
   140  140  141 1   
   141  140  149 1   
   142  141  142 1   
   143  141  144 1   
   144  141  150 1   
   145  142  143 2   
   146  142  162 1   
   147  144  145 1   
   148  144  151 1   
   149  144  152 1   
   150  145  146 1   
   151  145  153 1   
   152  145  154 1   
   153  146  147 1   
   154  146  155 1   
   155  146  156 1   
   156  147  148 1   
   157  147  157 1   
   158  147  158 1   
   159  148  159 1   
   160  148  160 1   
   161  148  161 1   
   162  162  163 1   
   163  162  171 1   
   164  163  164 1   
   165  163  166 1   
   166  163  172 1   
   167  164  165 2   
   168  164  177 1   
   169  166  167 1   
   170  166  173 1   
   171  166  174 1   
   172  167  168 1   
   173  167  175 1   
   174  167  176 1   
   175  168  169 1   
   176  168  170 1   
   177  177  178 1   
   178  177  182 1   
   179  178  179 1   
   180  178  180 1   
   181  178  181 1   
   182  184  185 1   
   183  184  186 1   
   184  187  188 1   
   185  187  189 1   
   186  190  191 1   
   187  190  192 1   
@<TRIPOS>SUBSTRUCTURE
     1 MOL         1 TEMP              0 ****  ****    0 ROOT
