@<TRIPOS>MOLECULE
MOL
  181   177     1     0     0
SMALL
resp


@<TRIPOS>ATOM
      1 C1          2.3910   -1.2360    4.5710 c3        1 MOL     -0.360284
      2 C2          3.0280   -0.1110    3.7620 c         1 MOL      0.669325
      3 O1          2.4700    0.3730    2.7570 o         1 MOL     -0.591730
      4 H1          3.1710   -1.8130    5.0680 hc        1 MOL      0.087265
      5 H2          1.7220   -0.8120    5.3200 hc        1 MOL      0.087265
      6 H3          1.8260   -1.8880    3.9060 hc        1 MOL      0.087265
      7 N1          4.1880    0.4210    4.0860 n         1 MOL     -0.466387
      8 C3          4.7070    1.6280    3.4060 c3        1 MOL      0.093662
      9 C4          5.4270    1.3350    2.0750 c         1 MOL      0.562823
     10 O2          5.4450    2.2630    1.2320 o         1 MOL     -0.558918
     11 C5          5.5320    2.5250    4.4130 c3        1 MOL     -0.274404
     12 C6          6.7810    1.8870    5.1590 c         1 MOL      0.651305
     13 O3          7.5470    2.6530    5.8300 o         1 MOL     -0.697686
     14 O4          6.9990    0.6280    5.1230 o         1 MOL     -0.697686
     15 H4          4.5810    0.0830    4.9590 hn        1 MOL      0.262513
     16 H5          3.8810    2.3000    3.1840 h1        1 MOL      0.076136
     17 H6          4.7700    2.8990    5.1010 hc        1 MOL      0.066772
     18 H7          5.8360    3.4580    3.9450 hc        1 MOL      0.066772
     19 N2          6.0120    0.1610    1.9640 n         1 MOL     -0.327641
     20 C7          6.6230   -0.3940    0.7980 c3        1 MOL      0.031270
     21 C8          5.6440   -0.3290   -0.4330 c         1 MOL      0.374944
     22 O5          4.5000   -0.7260   -0.3050 o         1 MOL     -0.504665
     23 C9          8.0000    0.1960    0.6610 c3        1 MOL     -0.294188
     24 H8          5.8930   -0.4900    2.7310 hn        1 MOL      0.228972
     25 H9          6.7440   -1.4470    1.0570 h1        1 MOL      0.124619
     26 H10         8.6450   -0.1540    1.4640 hc        1 MOL      0.090923
     27 H11         8.6700   -0.2520   -0.0630 hc        1 MOL      0.090923
     28 H12         8.1680    1.2690    0.5350 hc        1 MOL      0.090923
     29 N3          6.0220    0.2710   -1.5970 n         1 MOL     -0.377019
     30 C10         5.1460    0.6920   -2.6650 c3        1 MOL      0.309066
     31 C11         5.0120    2.2610   -2.7380 c         1 MOL      0.451242
     32 O6          4.9510    2.8420   -3.8220 o         1 MOL     -0.514004
     33 C12         5.5900   -0.0460   -3.9110 c3        1 MOL     -0.367359
     34 C13         5.5160   -1.5540   -3.7440 c         1 MOL      0.734293
     35 O7          4.7670   -2.0180   -2.8060 o         1 MOL     -0.691770
     36 O8          6.1520   -2.3430   -4.4870 o         1 MOL     -0.691770
     37 H13         6.8610    0.8150   -1.5040 hn        1 MOL      0.208546
     38 H14         4.1580    0.2700   -2.5380 h1        1 MOL     -0.010813
     39 H15         6.6330    0.2050   -4.1110 hc        1 MOL      0.068754
     40 H16         4.9230    0.3240   -4.6790 hc        1 MOL      0.068754
     41 N4          5.0600    2.9940   -1.6060 n         1 MOL     -0.287435
     42 C14         4.7430    4.4260   -1.5520 c3        1 MOL     -0.199548
     43 C15         3.2950    4.8330   -2.0380 c         1 MOL      0.573778
     44 O9          3.0560    5.9430   -2.5980 o         1 MOL     -0.586669
     45 H17         5.2280    2.5540   -0.7160 hn        1 MOL      0.252922
     46 H18         5.4550    4.9920   -2.1540 h1        1 MOL      0.103096
     47 H19         4.7810    4.7040   -0.4900 h1        1 MOL      0.103096
     48 N5          2.3370    3.8920   -1.9990 n         1 MOL     -0.219292
     49 C16         1.0300    4.0200   -2.6010 c3        1 MOL     -0.011787
     50 C17         0.2080    5.0550   -1.7510 c         1 MOL      0.421852
     51 O10         0.2420    5.1570   -0.5780 o         1 MOL     -0.492617
     52 C18         0.3340    2.6380   -2.6470 c3        1 MOL     -0.325847
     53 C19         0.9380    1.6970   -3.6520 c         1 MOL      0.687530
     54 N6          1.3640    0.5100   -3.2430 n         1 MOL     -0.836992
     55 O11         1.1900    2.0880   -4.7890 o         1 MOL     -0.590029
     56 H20         2.7150    3.0560   -1.5870 hn        1 MOL      0.185247
     57 H21         1.2080    4.4200   -3.5920 h1        1 MOL      0.096621
     58 H22        -0.7520    2.7080   -2.7750 hc        1 MOL      0.118822
     59 H23         0.4120    2.2240   -1.6490 hc        1 MOL      0.118822
     60 H24         1.2580    0.2820   -2.2650 hn        1 MOL      0.397783
     61 H25         1.7550   -0.0850   -3.9550 hn        1 MOL      0.397783
     62 N7         -0.5930    5.8360   -2.4330 n         1 MOL     -0.291218
     63 C20        -1.5520    6.7960   -1.8760 c3        1 MOL     -0.194520
     64 C21        -2.9010    6.1570   -1.4300 c         1 MOL      0.554494
     65 O12        -3.3940    5.1770   -2.0280 o         1 MOL     -0.497767
     66 H26        -0.6190    5.6900   -3.4380 hn        1 MOL      0.252060
     67 H27        -1.7560    7.5730   -2.6070 h1        1 MOL      0.109808
     68 H28        -1.1340    7.2410   -0.9640 h1        1 MOL      0.109808
     69 N8         -3.5310    6.7730   -0.4060 n         1 MOL     -0.374113
     70 C22        -4.8850    6.4020    0.0320 c3        1 MOL     -0.217076
     71 C23        -5.0590    4.8860    0.5340 c         1 MOL      0.408113
     72 O13        -6.1820    4.4250    0.5150 o         1 MOL     -0.492873
     73 C24        -5.3890    7.3720    1.0910 c3        1 MOL      0.537387
     74 C25        -4.8330    7.1700    2.5130 c3        1 MOL     -0.428760
     75 O14        -5.1150    8.7520    0.6960 oh        1 MOL     -0.663527
     76 H29        -3.1300    7.6480   -0.0890 hn        1 MOL      0.215637
     77 H30        -5.6040    6.4590   -0.7870 h1        1 MOL      0.127353
     78 H31        -6.4660    7.2150    1.1580 h1        1 MOL      0.007285
     79 H32        -4.1880    8.9200    0.8710 ho        1 MOL      0.397506
     80 H33        -3.7470    7.1440    2.4200 hc        1 MOL      0.096875
     81 H34        -5.2640    7.8360    3.2610 hc        1 MOL      0.096875
     82 H35        -5.1670    6.1900    2.8490 hc        1 MOL      0.096875
     83 N9         -3.9690    4.1750    0.9750 n         1 MOL     -0.024922
     84 C26        -3.8900    2.7050    1.2460 c3        1 MOL     -0.226640
     85 C27        -2.6740    2.1530    0.5210 c         1 MOL      0.387813
     86 O15        -1.7610    2.9440    0.1750 o         1 MOL     -0.402060
     87 C28        -3.9880    2.4340    2.7560 c3        1 MOL      0.032491
     88 C29        -2.8100    2.9960    3.6260 c3        1 MOL      0.106421
     89 C30        -5.3650    2.9550    3.2560 c3        1 MOL     -0.299487
     90 C31        -2.7930    2.5120    5.0900 c3        1 MOL     -0.359652
     91 H36        -3.1220    4.6990    1.1510 hn        1 MOL      0.164961
     92 H37        -4.7380    2.1540    0.8340 h1        1 MOL      0.172489
     93 H38        -4.0220    1.3530    2.9070 hc        1 MOL      0.029305
     94 H39        -2.9160    4.0830    3.6970 hc        1 MOL      0.026348
     95 H40        -1.8580    2.8270    3.1160 hc        1 MOL      0.026348
     96 H41        -5.5940    3.9490    2.8690 hc        1 MOL      0.071439
     97 H42        -6.2530    2.3900    2.9670 hc        1 MOL      0.071439
     98 H43        -5.3480    3.0640    4.3400 hc        1 MOL      0.071439
     99 H44        -3.7730    2.5380    5.5800 hc        1 MOL      0.090966
    100 H45        -2.4090    1.4890    5.1020 hc        1 MOL      0.090966
    101 H46        -2.0630    2.9490    5.7710 hc        1 MOL      0.090966
    102 N10        -2.5760    0.8330    0.3580 n         1 MOL     -0.373565
    103 C32        -1.5010    0.1550   -0.3720 c3        1 MOL     -0.056187
    104 C33        -1.9750   -0.9650   -1.2270 c         1 MOL      0.495145
    105 O16        -1.3200   -1.1780   -2.2350 o         1 MOL     -0.511922
    106 C34        -0.5630   -0.4110    0.6560 c3        1 MOL     -0.152295
    107 C35         0.5910   -1.1540    0.0590 c         1 MOL      0.640044
    108 O17         1.6410   -0.5970   -0.3670 o         1 MOL     -0.675314
    109 O18         0.3900   -2.3730   -0.0910 o         1 MOL     -0.675314
    110 H47        -3.3870    0.3340    0.6770 hn        1 MOL      0.264976
    111 H48        -0.8640    0.8080   -0.9660 h1        1 MOL      0.146047
    112 H49        -1.0340   -1.0220    1.4170 hc        1 MOL      0.073759
    113 H50        -0.1620    0.3930    1.2680 hc        1 MOL      0.073759
    114 N11        -3.1560   -1.5330   -0.9900 n         1 MOL     -0.365188
    115 C36        -3.7570   -2.5270   -1.9050 c3        1 MOL      0.255841
    116 C37        -4.1950   -3.7540   -1.1190 c         1 MOL      0.164508
    117 O19        -4.5130   -3.5500    0.0660 o         1 MOL     -0.422822
    118 C38        -4.9340   -1.8170   -2.6140 c3        1 MOL     -0.372392
    119 C39        -5.8740   -1.1160   -1.6140 ca        1 MOL      0.235482
    120 C40        -6.8970   -1.7880   -0.9070 ca        1 MOL     -0.237547
    121 C41        -5.9570    0.3450   -1.6550 ca        1 MOL     -0.237547
    122 C42        -7.7790   -1.0040   -0.0560 ca        1 MOL     -0.084790
    123 C43        -6.9490    1.0970   -1.0290 ca        1 MOL     -0.084790
    124 C44        -7.8060    0.3920   -0.1800 ca        1 MOL     -0.135571
    125 H51        -3.6390   -1.3140   -0.1330 hn        1 MOL      0.255427
    126 H52        -3.0010   -2.8190   -2.6350 h1        1 MOL      0.027459
    127 H53        -5.4170   -2.5560   -3.2410 hc        1 MOL      0.120926
    128 H54        -4.5760   -1.0410   -3.2890 hc        1 MOL      0.120926
    129 H55        -6.8100   -2.8350   -0.6720 ha        1 MOL      0.139119
    130 H56        -5.2670    0.8400   -2.3160 ha        1 MOL      0.139119
    131 H57        -8.3440   -1.4620    0.7520 ha        1 MOL      0.110969
    132 H58        -7.0810    2.1700   -1.0920 ha        1 MOL      0.110969
    133 H59        -8.5040    0.9120    0.4630 ha        1 MOL      0.104161
    134 N12        -4.1610   -4.9470   -1.6540 n         1 MOL      0.010352
    135 C45        -4.5100   -6.1740   -0.9110 c3        1 MOL     -0.089560
    136 C46        -3.7100   -6.4280    0.3700 c         1 MOL      0.305343
    137 O20        -4.1400   -7.2060    1.1850 o         1 MOL     -0.497925
    138 C47        -4.4370   -7.2710   -1.8910 c3        1 MOL      0.111899
    139 C48        -4.5580   -6.6060   -3.2320 c3        1 MOL     -0.179023
    140 C49        -3.9850   -5.2220   -3.0370 c3        1 MOL      0.010868
    141 H60        -5.5610   -6.1700   -0.6390 h1        1 MOL      0.109451
    142 H61        -3.5140   -7.8490   -1.8120 hc        1 MOL      0.017305
    143 H62        -5.2200   -8.0290   -1.8040 hc        1 MOL      0.017305
    144 H63        -4.0060   -7.1470   -3.9960 hc        1 MOL      0.057074
    145 H64        -5.5890   -6.4410   -3.5370 hc        1 MOL      0.057074
    146 H65        -2.9390   -5.2170   -3.3670 h1        1 MOL      0.049404
    147 H66        -4.4520   -4.4860   -3.6900 h1        1 MOL      0.049404
    148 N13        -2.6130   -5.7080    0.6750 n         1 MOL     -0.095382
    149 C50        -2.0180   -5.6680    2.0570 c3        1 MOL     -0.225409
    150 C51        -2.8870   -4.9030    3.0760 c         1 MOL      0.421048
    151 O21        -2.6790   -5.1000    4.2900 o         1 MOL     -0.528542
    152 C52        -0.5880   -5.2130    1.9400 c3        1 MOL      0.099037
    153 C53         0.2850   -6.2580    1.2340 c3        1 MOL     -0.317581
    154 C54         1.7150   -5.6310    1.0820 c         1 MOL      0.715372
    155 O22         2.5310   -5.6760    2.0250 o         1 MOL     -0.674441
    156 O23         1.9850   -4.9330    0.0830 o         1 MOL     -0.674441
    157 H67        -2.1490   -5.1500   -0.0220 hn        1 MOL      0.201214
    158 H68        -2.0580   -6.7200    2.3680 h1        1 MOL      0.153121
    159 H69        -0.2320   -5.0330    2.9550 hc        1 MOL      0.062770
    160 H70        -0.4950   -4.2540    1.4180 hc        1 MOL      0.062770
    161 H71        -0.0120   -6.6600    0.2620 hc        1 MOL      0.044408
    162 H72         0.4990   -7.0300    1.9740 hc        1 MOL      0.044408
    163 N14        -3.8480   -4.0340    2.6700 n         1 MOL     -0.078642
    164 C55        -4.6710   -3.2680    3.6140 c3        1 MOL     -0.255250
    165 H73        -5.3750   -2.6480    3.0600 h1        1 MOL      0.096086
    166 H74        -5.2200   -3.9550    4.2570 h1        1 MOL      0.096086
    167 H75        -4.0290   -2.6320    4.2230 h1        1 MOL      0.096086
    168 H76        -3.9940   -3.8200    1.6960 hn        1 MOL      0.097897
    169 Ca1         3.0460   -2.6680   -0.9740 Ca        1 MOL      1.663459
    170 O24         3.3530   -3.0600    1.6790 oh        1 MOL     -0.811775
    171 H77         3.1530   -3.9740    1.8930 ho        1 MOL      0.385583
    172 H78         4.0000   -2.8030    2.3330 ho        1 MOL      0.385583
    173 O25         5.2830   -4.0820   -0.2970 oh        1 MOL     -0.811775
    174 H79         5.3960   -4.8650    0.2430 ho        1 MOL      0.385583
    175 H80         6.1490   -3.6770   -0.3220 ho        1 MOL      0.385583
    176 O26         1.8000   -3.1180   -3.1750 oh        1 MOL     -0.811775
    177 H81         1.0220   -3.6620   -3.2670 ho        1 MOL      0.385583
    178 H82         2.2200   -3.1430   -4.0320 ho        1 MOL      0.385583
    179 O27         3.4790   -5.5170   -2.0120 oh        1 MOL     -0.811775
    180 H83         2.7720   -5.6090   -1.3680 ho        1 MOL      0.385583
    181 H84         3.1750   -5.9850   -2.7860 ho        1 MOL      0.385583
@<TRIPOS>BOND
     1    1    2 1   
     2    1    4 1   
     3    1    5 1   
     4    1    6 1   
     5    2    3 2   
     6    2    7 1   
     7    7    8 1   
     8    7   15 1   
     9    8    9 1   
    10    8   11 1   
    11    8   16 1   
    12    9   10 2   
    13    9   19 1   
    14   11   12 1   
    15   11   17 1   
    16   11   18 1   
    17   12   13 1   
    18   12   14 1   
    19   19   20 1   
    20   19   24 1   
    21   20   21 1   
    22   20   23 1   
    23   20   25 1   
    24   21   22 2   
    25   21   29 1   
    26   23   26 1   
    27   23   27 1   
    28   23   28 1   
    29   29   30 1   
    30   29   37 1   
    31   30   31 1   
    32   30   33 1   
    33   30   38 1   
    34   31   32 2   
    35   31   41 1   
    36   33   34 1   
    37   33   39 1   
    38   33   40 1   
    39   34   35 1   
    40   34   36 1   
    41   41   42 1   
    42   41   45 1   
    43   42   43 1   
    44   42   46 1   
    45   42   47 1   
    46   43   44 2   
    47   43   48 1   
    48   48   49 1   
    49   48   56 1   
    50   49   50 1   
    51   49   52 1   
    52   49   57 1   
    53   50   51 2   
    54   50   62 1   
    55   52   53 1   
    56   52   58 1   
    57   52   59 1   
    58   53   54 1   
    59   53   55 2   
    60   54   60 1   
    61   54   61 1   
    62   62   63 1   
    63   62   66 1   
    64   63   64 1   
    65   63   67 1   
    66   63   68 1   
    67   64   65 2   
    68   64   69 1   
    69   69   70 1   
    70   69   76 1   
    71   70   71 1   
    72   70   73 1   
    73   70   77 1   
    74   71   72 2   
    75   71   83 1   
    76   73   74 1   
    77   73   75 1   
    78   73   78 1   
    79   74   80 1   
    80   74   81 1   
    81   74   82 1   
    82   75   79 1   
    83   83   84 1   
    84   83   91 1   
    85   84   85 1   
    86   84   87 1   
    87   84   92 1   
    88   85   86 2   
    89   85  102 1   
    90   87   88 1   
    91   87   89 1   
    92   87   93 1   
    93   88   90 1   
    94   88   94 1   
    95   88   95 1   
    96   89   96 1   
    97   89   97 1   
    98   89   98 1   
    99   90   99 1   
   100   90  100 1   
   101   90  101 1   
   102  102  103 1   
   103  102  110 1   
   104  103  104 1   
   105  103  106 1   
   106  103  111 1   
   107  104  105 2   
   108  104  114 1   
   109  106  107 1   
   110  106  112 1   
   111  106  113 1   
   112  107  108 1   
   113  107  109 1   
   114  114  115 1   
   115  114  125 1   
   116  115  116 1   
   117  115  118 1   
   118  115  126 1   
   119  116  117 2   
   120  116  134 1   
   121  118  119 1   
   122  118  127 1   
   123  118  128 1   
   124  119  120 ar  
   125  119  121 ar  
   126  120  122 ar  
   127  120  129 1   
   128  121  123 ar  
   129  121  130 1   
   130  122  124 ar  
   131  122  131 1   
   132  123  124 ar  
   133  123  132 1   
   134  124  133 1   
   135  134  135 1   
   136  134  140 1   
   137  135  136 1   
   138  135  138 1   
   139  135  141 1   
   140  136  137 2   
   141  136  148 1   
   142  138  139 1   
   143  138  142 1   
   144  138  143 1   
   145  139  140 1   
   146  139  144 1   
   147  139  145 1   
   148  140  146 1   
   149  140  147 1   
   150  148  149 1   
   151  148  157 1   
   152  149  150 1   
   153  149  152 1   
   154  149  158 1   
   155  150  151 2   
   156  150  163 1   
   157  152  153 1   
   158  152  159 1   
   159  152  160 1   
   160  153  154 1   
   161  153  161 1   
   162  153  162 1   
   163  154  155 1   
   164  154  156 1   
   165  163  164 1   
   166  163  168 1   
   167  164  165 1   
   168  164  166 1   
   169  164  167 1   
   170  170  171 1   
   171  170  172 1   
   172  173  174 1   
   173  173  175 1   
   174  176  177 1   
   175  176  178 1   
   176  179  180 1   
   177  179  181 1   
@<TRIPOS>SUBSTRUCTURE
     1 MOL         1 TEMP              0 ****  ****    0 ROOT
