@<TRIPOS>MOLECULE
MOL
  192   187     1     0     0
SMALL
resp


@<TRIPOS>ATOM
      1 C1          4.6290    3.6930   -3.8600 c3        1 MOL     -0.342610
      2 C2          5.4250    3.0340   -2.7560 c         1 MOL      0.761731
      3 O1          4.9550    2.7670   -1.6590 o         1 MOL     -0.631316
      4 H1          5.3030    4.0040   -4.6580 hc        1 MOL      0.089931
      5 H2          3.9020    2.9840   -4.2560 hc        1 MOL      0.089931
      6 H3          4.1090    4.5640   -3.4640 hc        1 MOL      0.089931
      7 N1          6.6370    2.5000   -3.0030 n         1 MOL     -0.781395
      8 C3          7.3010    1.4990   -2.1710 c3        1 MOL      0.401008
      9 C4          6.3040    0.3800   -1.6920 c         1 MOL      0.359533
     10 O2          5.9890    0.1810   -0.4990 o         1 MOL     -0.458848
     11 C5          8.1570    2.1220   -1.0610 c3        1 MOL     -0.287010
     12 C6          7.4230    3.2020   -0.2330 c         1 MOL      0.900295
     13 O3          6.6730    2.8840    0.6670 o         1 MOL     -0.777792
     14 O4          7.7650    4.3960   -0.4100 o         1 MOL     -0.777792
     15 H4          6.9860    2.7010   -3.9210 hn        1 MOL      0.337726
     16 H5          8.0310    1.0050   -2.8180 h1        1 MOL     -0.002648
     17 H6          9.1060    2.5020   -1.4210 hc        1 MOL      0.044158
     18 H7          8.3590    1.2810   -0.4070 hc        1 MOL      0.044158
     19 N2          5.9160   -0.4040   -2.6660 n         1 MOL     -0.495263
     20 C7          5.0550   -1.6780   -2.6570 c3        1 MOL      0.130794
     21 C8          5.5350   -2.7980   -1.7190 c         1 MOL      0.434245
     22 O5          5.6340   -3.8750   -2.2570 o         1 MOL     -0.592192
     23 C9          3.5470   -1.3270   -2.5230 c3        1 MOL      0.442373
     24 C10         2.5320   -2.4770   -2.5660 c3        1 MOL     -0.236464
     25 C11         3.1260   -0.2360   -3.4910 c3        1 MOL     -0.040511
     26 C12         2.2720   -3.1660   -3.9550 c3        1 MOL     -0.537605
     27 H8          6.2660   -0.1320   -3.5720 hn        1 MOL      0.254374
     28 H9          5.2350   -2.1320   -3.6440 h1        1 MOL      0.029699
     29 H10         3.4190   -0.9570   -1.5080 hc        1 MOL     -0.181618
     30 H11         1.5610   -2.1970   -2.1470 hc        1 MOL      0.147963
     31 H12         2.9740   -3.2230   -1.9080 hc        1 MOL      0.147963
     32 H13         3.4160   -0.5830   -4.4810 hc        1 MOL     -0.028373
     33 H14         2.0790    0.0410   -3.3730 hc        1 MOL     -0.028373
     34 H15         3.6490    0.7080   -3.3230 hc        1 MOL     -0.028373
     35 H16         1.6740   -2.4470   -4.5330 hc        1 MOL      0.132671
     36 H17         3.2330   -3.4400   -4.3800 hc        1 MOL      0.132671
     37 H18         1.5620   -3.9840   -3.8690 hc        1 MOL      0.132671
     38 N3          5.8710   -2.6140   -0.4820 n         1 MOL     -0.065672
     39 C13         6.5040   -3.6870    0.3250 c3        1 MOL     -0.020999
     40 C14         5.7220   -4.9910    0.4940 c         1 MOL      0.510067
     41 O6          6.3580   -6.0630    0.6280 o         1 MOL     -0.579946
     42 C15         7.1240   -3.2500    1.6600 c3        1 MOL     -0.151531
     43 C16         8.0190   -1.9650    1.5350 c         1 MOL      0.722007
     44 O7          7.9850   -1.1850    2.5040 o         1 MOL     -0.696317
     45 O8          8.8490   -1.9230    0.6030 o         1 MOL     -0.696317
     46 H19         5.8830   -1.6690   -0.1300 hn        1 MOL      0.113276
     47 H20         7.3970   -3.9720   -0.2310 h1        1 MOL      0.041055
     48 H21         7.6190   -4.0570    2.1900 hc        1 MOL      0.049456
     49 H22         6.3680   -2.9030    2.3620 hc        1 MOL      0.049456
     50 N4          4.4200   -4.9560    0.8680 n         1 MOL     -0.480181
     51 C17         3.5370   -3.8220    1.1770 c3        1 MOL      0.312390
     52 C18         2.3580   -4.1720    2.1160 c         1 MOL      0.495109
     53 O9          1.9400   -5.3190    2.1890 o         1 MOL     -0.589753
     54 H23         4.0090   -5.8500    1.1100 hn        1 MOL      0.260502
     55 H24         3.1710   -3.4520    0.2140 h1        1 MOL     -0.081548
     56 H25         4.1720   -3.0120    1.5560 h1        1 MOL     -0.081548
     57 N5          1.7210   -3.2840    2.8660 n         1 MOL     -0.412198
     58 C19         2.1160   -1.9060    3.1340 c3        1 MOL      0.220018
     59 C20         2.3300   -0.9680    1.8600 c         1 MOL      0.156690
     60 O10         3.4770   -0.5540    1.6430 o         1 MOL     -0.383491
     61 C21         3.2800   -1.9220    4.1060 c3        1 MOL     -0.361832
     62 C22         3.5850   -0.5250    4.5630 c         1 MOL      0.761282
     63 O11         4.7760   -0.2100    4.7860 o         1 MOL     -0.680705
     64 O12         2.6650    0.2470    4.8780 o         1 MOL     -0.680705
     65 H26         1.0350   -3.7460    3.4490 hn        1 MOL      0.271364
     66 H27         1.3220   -1.4150    3.7000 h1        1 MOL      0.005829
     67 H28         4.1800   -2.3450    3.6530 hc        1 MOL      0.088189
     68 H29         3.0830   -2.5260    4.9930 hc        1 MOL      0.088189
     69 N6          1.3590   -0.7140    0.9760 n         1 MOL      0.002533
     70 C23        -0.0240   -0.9640    1.1150 c3        1 MOL     -0.245772
     71 C24        -0.2970   -2.4160    0.6730 c         1 MOL      0.641566
     72 O13         0.5480   -3.0910    0.0970 o         1 MOL     -0.475539
     73 H30         1.6220   -0.1570    0.1790 hn        1 MOL      0.104455
     74 H31        -0.5790   -0.3830    0.3760 h1        1 MOL      0.097110
     75 H32        -0.4540   -0.6900    2.0860 h1        1 MOL      0.097110
     76 N7         -1.5650   -2.8530    0.8760 n         1 MOL     -0.596771
     77 C25        -2.0140   -4.1690    0.3400 c3        1 MOL      0.007523
     78 C26        -2.5730   -4.1620   -1.0900 c         1 MOL      0.356851
     79 O14        -2.7020   -5.2320   -1.7710 o         1 MOL     -0.525750
     80 C27        -3.1040   -4.7600    1.2250 c3        1 MOL      0.059533
     81 C28        -4.4530   -4.0020    1.1960 c3        1 MOL     -0.189194
     82 C29        -5.3210   -4.6410    2.2830 c         1 MOL      0.640295
     83 N8         -6.0730   -5.6560    1.9380 n         1 MOL     -0.801737
     84 O15        -5.1900   -4.3350    3.4430 o         1 MOL     -0.557105
     85 H33        -2.1110   -2.3900    1.5780 hn        1 MOL      0.306304
     86 H34        -1.1200   -4.7840    0.3110 h1        1 MOL      0.124918
     87 H35        -2.7470   -4.8590    2.2500 hc        1 MOL      0.032727
     88 H36        -3.1960   -5.7840    0.8590 hc        1 MOL      0.032727
     89 H37        -4.9550   -4.1360    0.2350 hc        1 MOL      0.040279
     90 H38        -4.2400   -2.9540    1.3990 hc        1 MOL      0.040279
     91 H39        -6.2150   -5.8230    0.9520 hn        1 MOL      0.377077
     92 H40        -6.5700   -6.1620    2.6610 hn        1 MOL      0.377077
     93 N9         -2.9900   -3.0150   -1.6070 n         1 MOL     -0.000279
     94 C30        -3.4950   -2.8000   -2.9540 c3        1 MOL     -0.376905
     95 C31        -4.8960   -2.1280   -3.0200 c         1 MOL      0.681790
     96 O16        -5.4930   -2.2590   -4.0820 o         1 MOL     -0.574223
     97 C32        -2.5020   -1.9580   -3.7210 c3        1 MOL      0.105628
     98 C33        -1.1310   -2.6430   -3.8440 c3        1 MOL     -0.101753
     99 C34        -2.2410   -0.5440   -3.1500 c3        1 MOL     -0.101753
    100 H41        -2.9150   -2.1820   -1.0350 hn        1 MOL      0.187599
    101 H42        -3.6530   -3.7780   -3.4100 h1        1 MOL      0.175816
    102 H43        -2.7900   -1.8310   -4.7650 hc        1 MOL      0.037523
    103 H44        -0.5880   -2.6930   -2.8940 hc        1 MOL      0.025630
    104 H45        -1.2200   -3.6860   -4.1460 hc        1 MOL      0.025630
    105 H46        -0.5690   -2.2540   -4.6950 hc        1 MOL      0.025630
    106 H47        -3.1770    0.0130   -3.1590 hc        1 MOL      0.025630
    107 H48        -1.8940   -0.6580   -2.1230 hc        1 MOL      0.025630
    108 H49        -1.5570    0.0450   -3.7510 hc        1 MOL      0.025630
    109 N10        -5.4230   -1.5620   -1.9470 n         1 MOL     -0.524330
    110 C35        -6.7730   -1.0120   -1.8270 c3        1 MOL      0.186776
    111 C36        -6.7640    0.4060   -1.2920 c         1 MOL      0.594030
    112 O17        -7.5350    1.1790   -1.9050 o         1 MOL     -0.569802
    113 C37        -7.6690   -2.0100   -1.1310 c3        1 MOL     -0.434458
    114 C38        -7.8040   -3.3480   -1.7900 c         1 MOL      0.788834
    115 N11        -7.9840   -3.4540   -3.0870 n         1 MOL     -0.849738
    116 O18        -7.7520   -4.3810   -1.1430 o         1 MOL     -0.618145
    117 H50        -4.8180   -1.5950   -1.1350 hn        1 MOL      0.235513
    118 H51        -7.1980   -0.9980   -2.8320 h1        1 MOL      0.043529
    119 H52        -8.6960   -1.6680   -1.1860 hc        1 MOL      0.131044
    120 H53        -7.3120   -2.2440   -0.1230 hc        1 MOL      0.131044
    121 H54        -8.0230   -2.6520   -3.6920 hn        1 MOL      0.389853
    122 H55        -7.9000   -4.3720   -3.5020 hn        1 MOL      0.389853
    123 N12        -5.8850    0.7620   -0.3520 n         1 MOL     -0.461143
    124 C39        -5.8210    2.0620    0.2770 c3        1 MOL     -0.032120
    125 C40        -4.4270    2.6960    0.2100 c         1 MOL      0.667799
    126 O19        -3.4320    1.9770   -0.0050 o         1 MOL     -0.542679
    127 C41        -6.2900    1.8350    1.7400 c3        1 MOL     -0.061212
    128 C42        -7.7510    1.3310    1.8920 ca        1 MOL      0.071383
    129 C43        -8.7930    2.2040    1.6230 ca        1 MOL     -0.184834
    130 C44        -7.9490    0.0120    2.2990 ca        1 MOL     -0.184834
    131 C45       -10.0750    1.6880    1.5590 ca        1 MOL     -0.168843
    132 C46        -9.3120   -0.4790    2.4020 ca        1 MOL     -0.168843
    133 C47       -10.4120    0.3900    1.9940 ca        1 MOL      0.209884
    134 O20       -11.6570   -0.1290    1.8580 oh        1 MOL     -0.453886
    135 H56        -5.2970    0.0510    0.0430 hn        1 MOL      0.280007
    136 H57        -6.5460    2.6680   -0.2630 h1        1 MOL      0.082752
    137 H58        -6.0840    2.7050    2.3530 hc        1 MOL      0.073138
    138 H59        -5.6260    1.1430    2.2580 hc        1 MOL      0.073138
    139 H60        -8.5030    3.1560    1.2080 ha        1 MOL      0.127762
    140 H61        -7.0730   -0.5900    2.4900 ha        1 MOL      0.127762
    141 H62       -10.8220    2.3620    1.1670 ha        1 MOL      0.124402
    142 H63        -9.5590   -1.4910    2.6880 ha        1 MOL      0.124402
    143 H64       -12.2830    0.5050    1.4890 ho        1 MOL      0.354578
    144 N13        -4.3690    4.0030    0.3630 n         1 MOL     -0.631080
    145 C48        -3.2760    4.9360    0.6930 c3        1 MOL      0.272234
    146 C49        -2.0970    4.9880   -0.2650 c         1 MOL      0.275461
    147 O21        -1.4090    6.0450   -0.3570 o         1 MOL     -0.523064
    148 C50        -2.7290    4.7930    2.0780 c3        1 MOL      0.000152
    149 C51        -3.6670    5.3200    3.1390 c3        1 MOL     -0.200015
    150 C52        -3.0800    5.2850    4.5540 c         1 MOL      0.697055
    151 O22        -2.9740    6.4020    5.1710 o         1 MOL     -0.721089
    152 O23        -2.7810    4.2010    5.1100 o         1 MOL     -0.721089
    153 H65        -5.2680    4.4590    0.2840 hn        1 MOL      0.310406
    154 H66        -3.6930    5.9370    0.7120 h1        1 MOL      0.043009
    155 H67        -1.8590    5.3960    2.3300 hc        1 MOL      0.061220
    156 H68        -2.5770    3.7410    2.3300 hc        1 MOL      0.061220
    157 H69        -4.6150    4.7730    3.1370 hc        1 MOL     -0.009484
    158 H70        -3.9480    6.3500    2.9160 hc        1 MOL     -0.009484
    159 N14        -1.8410    3.9390   -1.0600 n         1 MOL     -0.163195
    160 C53        -0.8160    3.8810   -2.1130 c3        1 MOL     -0.211851
    161 C54        -1.1150    4.5290   -3.4640 c         1 MOL      0.495844
    162 O24        -0.3790    4.5680   -4.4750 o         1 MOL     -0.528708
    163 C55        -0.3610    2.4960   -2.3980 c3        1 MOL     -0.219607
    164 C56         0.1640    1.8120   -1.1220 c3        1 MOL      0.600420
    165 C57         1.5630    2.2400   -0.7510 c         1 MOL      0.539107
    166 O25         1.6530    3.3820   -0.2320 o         1 MOL     -0.642485
    167 O26         2.4680    1.3970   -0.6240 o         1 MOL     -0.642485
    168 H71        -2.4580    3.1460   -0.9170 hn        1 MOL      0.153359
    169 H72         0.1020    4.3400   -1.7380 h1        1 MOL      0.183230
    170 H73         0.4520    2.4030   -3.1260 hc        1 MOL      0.063451
    171 H74        -1.2140    1.8980   -2.7160 hc        1 MOL      0.063451
    172 H75         0.1450    0.7330   -1.2570 hc        1 MOL     -0.185744
    173 H76        -0.5040    2.0720   -0.3010 hc        1 MOL     -0.185744
    174 N15        -2.3240    5.1530   -3.5170 n         1 MOL     -0.234792
    175 C58        -2.7510    5.9630   -4.6250 c3        1 MOL     -0.135343
    176 H77        -1.8870    6.2300   -5.2340 h1        1 MOL      0.066318
    177 H78        -3.4640    5.4040   -5.2320 h1        1 MOL      0.066318
    178 H79        -3.2240    6.8710   -4.2510 h1        1 MOL      0.066318
    179 H80        -2.9110    5.2220   -2.7010 hn        1 MOL      0.210563
    180 Ca1         4.3810    1.9300    0.9280 Ca        1 MOL      1.747694
    181 O27         5.8830    0.5660    2.5760 oh        1 MOL     -0.795408
    182 H81         5.5510    0.3710    3.4430 ho        1 MOL      0.378244
    183 H82         6.6940    0.0550    2.5130 ho        1 MOL      0.378244
    184 O28         2.3890    2.3040    2.8580 oh        1 MOL     -0.795408
    185 H83         1.5240    2.6980    2.8290 ho        1 MOL      0.378244
    186 H84         2.4600    1.9220    3.7310 ho        1 MOL      0.378244
    187 O29         5.1210    3.5400    3.3450 oh        1 MOL     -0.795408
    188 H85         4.3810    3.9580    3.7960 ho        1 MOL      0.378244
    189 H86         5.4010    4.1800    2.6930 ho        1 MOL      0.378244
    190 O30         4.1490    4.5110    0.5250 oh        1 MOL     -0.795408
    191 H87         3.2090    4.6540    0.3870 ho        1 MOL      0.378244
    192 H88         4.5660    4.9450   -0.2200 ho        1 MOL      0.378244
@<TRIPOS>BOND
     1    1    2 1   
     2    1    4 1   
     3    1    5 1   
     4    1    6 1   
     5    2    3 2   
     6    2    7 1   
     7    7    8 1   
     8    7   15 1   
     9    8    9 1   
    10    8   11 1   
    11    8   16 1   
    12    9   10 2   
    13    9   19 1   
    14   11   12 1   
    15   11   17 1   
    16   11   18 1   
    17   12   13 1   
    18   12   14 1   
    19   19   20 1   
    20   19   27 1   
    21   20   21 1   
    22   20   23 1   
    23   20   28 1   
    24   21   22 2   
    25   21   38 1   
    26   23   24 1   
    27   23   25 1   
    28   23   29 1   
    29   24   26 1   
    30   24   30 1   
    31   24   31 1   
    32   25   32 1   
    33   25   33 1   
    34   25   34 1   
    35   26   35 1   
    36   26   36 1   
    37   26   37 1   
    38   38   39 1   
    39   38   46 1   
    40   39   40 1   
    41   39   42 1   
    42   39   47 1   
    43   40   41 2   
    44   40   50 1   
    45   42   43 1   
    46   42   48 1   
    47   42   49 1   
    48   43   44 1   
    49   43   45 1   
    50   50   51 1   
    51   50   54 1   
    52   51   52 1   
    53   51   55 1   
    54   51   56 1   
    55   52   53 2   
    56   52   57 1   
    57   57   58 1   
    58   57   65 1   
    59   58   59 1   
    60   58   61 1   
    61   58   66 1   
    62   59   60 2   
    63   59   69 1   
    64   61   62 1   
    65   61   67 1   
    66   61   68 1   
    67   62   63 1   
    68   62   64 1   
    69   69   70 1   
    70   69   73 1   
    71   70   71 1   
    72   70   74 1   
    73   70   75 1   
    74   71   72 2   
    75   71   76 1   
    76   76   77 1   
    77   76   85 1   
    78   77   78 1   
    79   77   80 1   
    80   77   86 1   
    81   78   79 2   
    82   78   93 1   
    83   80   81 1   
    84   80   87 1   
    85   80   88 1   
    86   81   82 1   
    87   81   89 1   
    88   81   90 1   
    89   82   83 1   
    90   82   84 2   
    91   83   91 1   
    92   83   92 1   
    93   93   94 1   
    94   93  100 1   
    95   94   95 1   
    96   94   97 1   
    97   94  101 1   
    98   95   96 2   
    99   95  109 1   
   100   97   98 1   
   101   97   99 1   
   102   97  102 1   
   103   98  103 1   
   104   98  104 1   
   105   98  105 1   
   106   99  106 1   
   107   99  107 1   
   108   99  108 1   
   109  109  110 1   
   110  109  117 1   
   111  110  111 1   
   112  110  113 1   
   113  110  118 1   
   114  111  112 2   
   115  111  123 1   
   116  113  114 1   
   117  113  119 1   
   118  113  120 1   
   119  114  115 1   
   120  114  116 2   
   121  115  121 1   
   122  115  122 1   
   123  123  124 1   
   124  123  135 1   
   125  124  125 1   
   126  124  127 1   
   127  124  136 1   
   128  125  126 2   
   129  125  144 1   
   130  127  128 1   
   131  127  137 1   
   132  127  138 1   
   133  128  129 ar  
   134  128  130 ar  
   135  129  131 ar  
   136  129  139 1   
   137  130  132 ar  
   138  130  140 1   
   139  131  133 ar  
   140  131  141 1   
   141  132  133 ar  
   142  132  142 1   
   143  133  134 1   
   144  134  143 1   
   145  144  145 1   
   146  144  153 1   
   147  145  146 1   
   148  145  148 1   
   149  145  154 1   
   150  146  147 2   
   151  146  159 1   
   152  148  149 1   
   153  148  155 1   
   154  148  156 1   
   155  149  150 1   
   156  149  157 1   
   157  149  158 1   
   158  150  151 1   
   159  150  152 1   
   160  159  160 1   
   161  159  168 1   
   162  160  161 1   
   163  160  163 1   
   164  160  169 1   
   165  161  162 2   
   166  161  174 1   
   167  163  164 1   
   168  163  170 1   
   169  163  171 1   
   170  164  165 1   
   171  164  172 1   
   172  164  173 1   
   173  165  166 1   
   174  165  167 1   
   175  174  175 1   
   176  174  179 1   
   177  175  176 1   
   178  175  177 1   
   179  175  178 1   
   180  181  182 1   
   181  181  183 1   
   182  184  185 1   
   183  184  186 1   
   184  187  188 1   
   185  187  189 1   
   186  190  191 1   
   187  190  192 1   
@<TRIPOS>SUBSTRUCTURE
     1 MOL         1 TEMP              0 ****  ****    0 ROOT
