@<TRIPOS>MOLECULE
MOL
  189   185     1     0     0
SMALL
resp


@<TRIPOS>ATOM
      1 C1          4.8820    4.1420   -3.9850 c3        1 MOL     -0.416445
      2 C2          5.4060    3.2880   -2.8080 c         1 MOL      0.712628
      3 O1          4.6760    3.0800   -1.8480 o         1 MOL     -0.621448
      4 H1          5.6690    4.2490   -4.7330 hc        1 MOL      0.108546
      5 H2          4.0190    3.6520   -4.4350 hc        1 MOL      0.108546
      6 H3          4.5920    5.1260   -3.6200 hc        1 MOL      0.108546
      7 N1          6.6700    2.8490   -2.8690 n         1 MOL     -0.673343
      8 C3          7.2220    1.6680   -2.2230 c3        1 MOL      0.255892
      9 C4          6.0830    0.6300   -1.9030 c         1 MOL      0.383785
     10 O2          5.5390    0.5770   -0.7690 o         1 MOL     -0.640066
     11 C5          8.0970    2.0610   -0.9780 c3        1 MOL     -0.128942
     12 C6          7.5620    3.1150    0.0070 c         1 MOL      0.729167
     13 O3          6.5770    2.8260    0.7190 o         1 MOL     -0.728114
     14 O4          8.1840    4.2170    0.1180 o         1 MOL     -0.728114
     15 H4          7.2040    3.4540   -3.4760 hn        1 MOL      0.352597
     16 H5          7.8810    1.1690   -2.9310 h1        1 MOL      0.001868
     17 H6          9.0200    2.5000   -1.3800 hc        1 MOL      0.015132
     18 H7          8.3810    1.1140   -0.5110 hc        1 MOL      0.015132
     19 N2          5.7040   -0.1460   -2.9100 n         1 MOL     -0.379390
     20 C7          4.8840   -1.3500   -2.8550 c3        1 MOL      0.129141
     21 C8          5.4900   -2.4700   -2.0220 c         1 MOL      0.224857
     22 O5          5.9150   -3.5150   -2.5870 o         1 MOL     -0.543954
     23 C9          3.3630   -1.2380   -2.7330 c3        1 MOL      0.192472
     24 C10         2.4220   -2.3300   -3.2950 c3        1 MOL      0.017227
     25 C11         2.9140    0.0300   -3.5230 c3        1 MOL     -0.258529
     26 C12         2.7250   -2.7940   -4.7770 c3        1 MOL     -0.120718
     27 H8          6.0520   -0.0650   -3.8580 hn        1 MOL      0.275712
     28 H9          4.9520   -1.7850   -3.8600 h1        1 MOL      0.030823
     29 H10         3.1750   -1.1310   -1.6690 hc        1 MOL     -0.053319
     30 H11         1.3680   -2.0890   -3.2340 hc        1 MOL      0.042121
     31 H12         2.6280   -3.1900   -2.6570 hc        1 MOL      0.042121
     32 H13         1.8240   -0.0010   -3.5060 hc        1 MOL      0.038555
     33 H14         3.2080    0.9140   -2.9490 hc        1 MOL      0.038555
     34 H15         3.3520    0.0180   -4.5180 hc        1 MOL      0.038555
     35 H16         2.5200   -2.0270   -5.5160 hc        1 MOL      0.008885
     36 H17         3.7860   -3.0410   -4.8270 hc        1 MOL      0.008885
     37 H18         2.1820   -3.6860   -5.0810 hc        1 MOL      0.008885
     38 N3          5.7080   -2.2730   -0.7250 n         1 MOL     -0.076253
     39 C13         6.3610   -3.2220    0.1660 c3        1 MOL      0.086495
     40 C14         5.5590   -4.4300    0.3330 c         1 MOL      0.655959
     41 O6          6.1120   -5.4690    0.0460 o         1 MOL     -0.582211
     42 C15         6.8570   -2.4930    1.4120 c3        1 MOL     -0.406651
     43 C16         7.8270   -3.3780    2.2080 c         1 MOL      0.727400
     44 O7          7.4550   -4.4430    2.8000 o         1 MOL     -0.729641
     45 O8          9.0220   -2.9690    2.2650 o         1 MOL     -0.729641
     46 H19         5.3690   -1.3650   -0.4340 hn        1 MOL      0.269409
     47 H20         7.2390   -3.5730   -0.4010 h1        1 MOL      0.060864
     48 H21         6.0870   -2.1300    2.0900 hc        1 MOL      0.099675
     49 H22         7.3510   -1.5990    1.0370 hc        1 MOL      0.099675
     50 N4          4.2600   -4.4510    0.6240 n         1 MOL     -0.627344
     51 C17         3.4320   -3.3260    1.1820 c3        1 MOL      0.233739
     52 C18         2.3160   -3.7910    2.0730 c         1 MOL      0.537401
     53 O9          2.0440   -5.0000    2.0310 o         1 MOL     -0.578702
     54 H23         3.7000   -5.2390    0.3380 hn        1 MOL      0.309991
     55 H24         2.9880   -2.7890    0.3440 h1        1 MOL      0.014885
     56 H25         4.0490   -2.6510    1.7810 h1        1 MOL      0.014885
     57 N5          1.4700   -2.9660    2.7790 n         1 MOL     -0.493472
     58 C19         1.7140   -1.5490    3.1750 c3        1 MOL      0.544214
     59 C20         1.9850   -0.5750    1.9420 c         1 MOL      0.282151
     60 O10         3.1240   -0.1000    1.7600 o         1 MOL     -0.669710
     61 C21         2.7040   -1.3700    4.2970 c3        1 MOL     -0.510887
     62 C22         2.7470    0.0800    4.7230 c         1 MOL      0.818307
     63 O11         3.7680    0.6620    5.0520 o         1 MOL     -0.699009
     64 O12         1.6650    0.7270    4.6460 o         1 MOL     -0.699009
     65 H26         0.5830   -3.3380    3.0590 hn        1 MOL      0.196341
     66 H27         0.7900   -1.2820    3.6730 h1        1 MOL     -0.000494
     67 H28         3.7120   -1.6610    4.0150 hc        1 MOL      0.100479
     68 H29         2.4350   -1.9300    5.1910 hc        1 MOL      0.100479
     69 N6          1.0660   -0.3840    0.9810 n         1 MOL     -0.351764
     70 C23        -0.2780   -0.9820    0.9000 c3        1 MOL      0.062020
     71 C24        -0.3460   -2.3110    0.2090 c         1 MOL      0.304973
     72 O13         0.5360   -2.6170   -0.6060 o         1 MOL     -0.501425
     73 H30         1.4300    0.1120    0.1880 hn        1 MOL      0.317738
     74 H31        -0.9250   -0.2870    0.3710 h1        1 MOL      0.027325
     75 H32        -0.6530   -1.1860    1.9010 h1        1 MOL      0.027325
     76 N7         -1.4210   -3.0250    0.5370 n         1 MOL     -0.086585
     77 C25        -1.6990   -4.3350   -0.0990 c3        1 MOL     -0.100697
     78 C26        -2.2630   -4.1740   -1.5480 c         1 MOL      0.248080
     79 O14        -2.1660   -5.0540   -2.4250 o         1 MOL     -0.479609
     80 C27        -2.7810   -5.1120    0.6680 c3        1 MOL      0.371593
     81 C28        -2.3740   -5.4650    2.1050 c3        1 MOL     -0.570972
     82 C29        -2.2240   -4.3650    3.1350 c         1 MOL      0.635773
     83 N8         -3.3470   -3.7490    3.5950 n         1 MOL     -0.796386
     84 O15        -1.1300   -4.0070    3.5840 o         1 MOL     -0.471399
     85 H33        -2.0560   -2.6260    1.2160 hn        1 MOL      0.185879
     86 H34        -0.7980   -4.9500   -0.0140 h1        1 MOL      0.169153
     87 H35        -2.9410   -6.0690    0.1830 hc        1 MOL     -0.063187
     88 H36        -3.7040   -4.5440    0.6170 hc        1 MOL     -0.063187
     89 H37        -1.4390   -5.9970    1.9600 hc        1 MOL      0.169452
     90 H38        -3.1200   -6.1320    2.5380 hc        1 MOL      0.169452
     91 H39        -4.2530   -3.9920    3.2250 hn        1 MOL      0.371564
     92 H40        -3.2180   -3.0590    4.3140 hn        1 MOL      0.371564
     93 N9         -2.7550   -2.9700   -1.8950 n         1 MOL     -0.031318
     94 C30        -3.1820   -2.6280   -3.2440 c3        1 MOL     -0.214933
     95 C31        -4.5030   -1.8110   -3.2190 c         1 MOL      0.564576
     96 O16        -4.9330   -1.3470   -4.2990 o         1 MOL     -0.534979
     97 C32        -2.1350   -1.8100   -3.9880 c3        1 MOL      0.220320
     98 C33        -0.9210   -2.6520   -4.4110 c3        1 MOL     -0.179745
     99 C34        -1.5450   -0.6820   -3.1990 c3        1 MOL     -0.179745
    100 H41        -2.6590   -2.2140   -1.2310 hn        1 MOL      0.069227
    101 H42        -3.3440   -3.5400   -3.8120 h1        1 MOL      0.142403
    102 H43        -2.6100   -1.4350   -4.8970 hc        1 MOL     -0.011633
    103 H44        -1.2790   -3.5480   -4.9250 hc        1 MOL      0.045567
    104 H45        -0.4560   -1.9670   -5.1240 hc        1 MOL      0.045567
    105 H46        -0.3800   -3.0120   -3.5420 hc        1 MOL      0.045567
    106 H47        -2.3090   -0.1360   -2.6380 hc        1 MOL      0.045567
    107 H48        -0.8150   -1.0710   -2.4940 hc        1 MOL      0.045567
    108 H49        -1.0670    0.0320   -3.8790 hc        1 MOL      0.045567
    109 N10        -5.2650   -1.8660   -2.1180 n         1 MOL     -0.504970
    110 C35        -6.6690   -1.2950   -2.0060 c3        1 MOL      0.007171
    111 C36        -6.6290    0.1110   -1.4650 c         1 MOL      0.695812
    112 O17        -7.4000    0.9180   -1.9810 o         1 MOL     -0.595577
    113 C37        -7.5270   -2.2310   -1.2280 c3        1 MOL     -0.453639
    114 C38        -7.5740   -3.5470   -1.9960 c         1 MOL      0.772192
    115 N11        -7.9840   -3.4930   -3.2770 n         1 MOL     -0.790771
    116 O18        -7.4800   -4.6240   -1.5540 o         1 MOL     -0.565924
    117 H50        -4.9470   -2.3740   -1.3080 hn        1 MOL      0.282951
    118 H51        -7.0700   -1.1720   -3.0140 h1        1 MOL      0.088744
    119 H52        -8.5620   -1.9100   -1.2190 hc        1 MOL      0.151828
    120 H53        -7.1060   -2.2410   -0.2280 hc        1 MOL      0.151828
    121 H54        -8.2700   -2.6680   -3.7860 hn        1 MOL      0.349826
    122 H55        -8.1520   -4.3710   -3.7700 hn        1 MOL      0.349826
    123 N12        -5.8310    0.4830   -0.4360 n         1 MOL     -0.551096
    124 C39        -5.8900    1.7180    0.3820 c3        1 MOL      0.461097
    125 C40        -4.5290    2.3920    0.5350 c         1 MOL      0.223449
    126 O19        -3.5250    1.7530    0.4210 o         1 MOL     -0.483637
    127 C41        -6.4150    1.2950    1.8110 c3        1 MOL     -0.137847
    128 C42        -7.7950    0.7550    1.8430 ca        1 MOL     -0.022568
    129 C43        -8.9080    1.5810    1.6410 ca        1 MOL     -0.109970
    130 C44        -7.9550   -0.6650    1.9160 ca        1 MOL     -0.109970
    131 C45       -10.2210    1.0280    1.6090 ca        1 MOL     -0.285979
    132 C46        -9.2430   -1.2460    1.9090 ca        1 MOL     -0.285979
    133 C47       -10.3440   -0.3680    1.7970 ca        1 MOL      0.333053
    134 O20       -11.5790   -0.8740    2.0560 oh        1 MOL     -0.496032
    135 H56        -5.4360   -0.3200    0.0270 hn        1 MOL      0.255837
    136 H57        -6.6460    2.3450   -0.0800 h1        1 MOL     -0.025302
    137 H58        -6.3960    2.2660    2.3150 hc        1 MOL      0.054870
    138 H59        -5.6950    0.6810    2.3550 hc        1 MOL      0.054870
    139 H60        -8.6720    2.6300    1.4990 ha        1 MOL      0.102993
    140 H61        -7.0840   -1.2700    2.1040 ha        1 MOL      0.102993
    141 H62       -11.0890    1.6510    1.4370 ha        1 MOL      0.147746
    142 H63        -9.3400   -2.3210    2.0360 ha        1 MOL      0.147746
    143 H64       -12.2520   -0.1980    2.0090 ho        1 MOL      0.355368
    144 N13        -4.6320    3.6460    0.8870 n         1 MOL     -0.446665
    145 C48        -3.5210    4.5290    1.4030 c3        1 MOL      0.016161
    146 C49        -2.4090    4.9140    0.4290 c         1 MOL      0.418465
    147 O21        -1.7100    5.8850    0.6800 o         1 MOL     -0.486462
    148 C50        -2.9680    3.8560    2.6990 c3        1 MOL      0.427769
    149 C51        -2.5070    4.8000    3.7510 c3        1 MOL     -0.469051
    150 C52        -2.0480    4.0410    5.0240 c         1 MOL      0.792905
    151 O22        -1.5960    2.8620    4.9860 o         1 MOL     -0.708395
    152 O23        -2.0120    4.6460    6.1230 o         1 MOL     -0.708395
    153 H65        -5.5270    4.1050    0.7470 hn        1 MOL      0.277687
    154 H66        -4.0310    5.4390    1.7080 h1        1 MOL      0.058370
    155 H67        -2.2010    3.1210    2.4630 hc        1 MOL     -0.050278
    156 H68        -3.8540    3.3750    3.1300 hc        1 MOL     -0.050278
    157 H69        -3.4000    5.3810    3.9940 hc        1 MOL      0.063451
    158 H70        -1.7000    5.4320    3.3620 hc        1 MOL      0.063451
    159 N14        -2.2850    4.3140   -0.8080 n         1 MOL     -0.505666
    160 C53        -1.1890    4.4790   -1.7570 c3        1 MOL      0.001797
    161 C54        -1.5100    5.5620   -2.8330 c         1 MOL      0.529370
    162 O24        -0.5950    6.1890   -3.3430 o         1 MOL     -0.553122
    163 C55        -0.7870    3.0530   -2.3200 c3        1 MOL     -0.160536
    164 C56        -0.2070    2.0570   -1.2560 c3        1 MOL      0.694212
    165 C57         1.1700    2.3870   -0.6480 c         1 MOL      0.368813
    166 O25         2.0410    1.4720   -0.7140 o         1 MOL     -0.551467
    167 O26         1.4150    3.4730   -0.2120 o         1 MOL     -0.551467
    168 H71        -2.8060    3.4620   -0.9160 hn        1 MOL      0.336680
    169 H72        -0.2880    4.7280   -1.1920 h1        1 MOL      0.128168
    170 H73        -0.0650    3.2610   -3.1130 hc        1 MOL     -0.020224
    171 H74        -1.6330    2.5080   -2.7340 hc        1 MOL     -0.020224
    172 H75        -0.1280    1.0500   -1.6670 hc        1 MOL     -0.163981
    173 H76        -0.8690    1.9690   -0.3940 hc        1 MOL     -0.163981
    174 N15        -2.7580    5.7760   -3.1720 n         1 MOL     -0.210968
    175 C58        -3.2960    6.6110   -4.2610 c3        1 MOL     -0.222410
    176 H77        -2.5370    6.7310   -5.0350 h1        1 MOL      0.093688
    177 H78        -4.1770    6.1300   -4.6880 h1        1 MOL      0.093688
    178 H79        -3.5710    7.5890   -3.8680 h1        1 MOL      0.093688
    179 H80        -3.4450    5.2280   -2.6700 hn        1 MOL      0.184048
    180 Ca1         4.0440    2.2670    0.7450 Ca        1 MOL      1.794119
    181 O27         4.2410    4.9970    1.1850 oh        1 MOL     -0.865149
    182 H81         4.5430    5.6250    1.8320 ho        1 MOL      0.420287
    183 H82         4.6700    5.2620    0.3710 ho        1 MOL      0.420287
    184 O28         2.2830    2.6090    2.7420 oh        1 MOL     -0.865149
    185 H83         2.1430    2.0430    3.4920 ho        1 MOL      0.420287
    186 H84         1.6760    3.3400    2.8620 ho        1 MOL      0.420287
    187 O29         5.3040    1.8500    3.0760 oh        1 MOL     -0.865149
    188 H85         4.8710    1.3160    3.7390 ho        1 MOL      0.420287
    189 H86         6.2370    1.6910    3.2010 ho        1 MOL      0.420287
@<TRIPOS>BOND
     1    1    2 1   
     2    1    4 1   
     3    1    5 1   
     4    1    6 1   
     5    2    3 2   
     6    2    7 1   
     7    7    8 1   
     8    7   15 1   
     9    8    9 1   
    10    8   11 1   
    11    8   16 1   
    12    9   10 2   
    13    9   19 1   
    14   11   12 1   
    15   11   17 1   
    16   11   18 1   
    17   12   13 1   
    18   12   14 1   
    19   19   20 1   
    20   19   27 1   
    21   20   21 1   
    22   20   23 1   
    23   20   28 1   
    24   21   22 2   
    25   21   38 1   
    26   23   24 1   
    27   23   25 1   
    28   23   29 1   
    29   24   26 1   
    30   24   30 1   
    31   24   31 1   
    32   25   32 1   
    33   25   33 1   
    34   25   34 1   
    35   26   35 1   
    36   26   36 1   
    37   26   37 1   
    38   38   39 1   
    39   38   46 1   
    40   39   40 1   
    41   39   42 1   
    42   39   47 1   
    43   40   41 2   
    44   40   50 1   
    45   42   43 1   
    46   42   48 1   
    47   42   49 1   
    48   43   44 1   
    49   43   45 1   
    50   50   51 1   
    51   50   54 1   
    52   51   52 1   
    53   51   55 1   
    54   51   56 1   
    55   52   53 2   
    56   52   57 1   
    57   57   58 1   
    58   57   65 1   
    59   58   59 1   
    60   58   61 1   
    61   58   66 1   
    62   59   60 2   
    63   59   69 1   
    64   61   62 1   
    65   61   67 1   
    66   61   68 1   
    67   62   63 1   
    68   62   64 1   
    69   69   70 1   
    70   69   73 1   
    71   70   71 1   
    72   70   74 1   
    73   70   75 1   
    74   71   72 2   
    75   71   76 1   
    76   76   77 1   
    77   76   85 1   
    78   77   78 1   
    79   77   80 1   
    80   77   86 1   
    81   78   79 2   
    82   78   93 1   
    83   80   81 1   
    84   80   87 1   
    85   80   88 1   
    86   81   82 1   
    87   81   89 1   
    88   81   90 1   
    89   82   83 1   
    90   82   84 2   
    91   83   91 1   
    92   83   92 1   
    93   93   94 1   
    94   93  100 1   
    95   94   95 1   
    96   94   97 1   
    97   94  101 1   
    98   95   96 2   
    99   95  109 1   
   100   97   98 1   
   101   97   99 1   
   102   97  102 1   
   103   98  103 1   
   104   98  104 1   
   105   98  105 1   
   106   99  106 1   
   107   99  107 1   
   108   99  108 1   
   109  109  110 1   
   110  109  117 1   
   111  110  111 1   
   112  110  113 1   
   113  110  118 1   
   114  111  112 2   
   115  111  123 1   
   116  113  114 1   
   117  113  119 1   
   118  113  120 1   
   119  114  115 1   
   120  114  116 2   
   121  115  121 1   
   122  115  122 1   
   123  123  124 1   
   124  123  135 1   
   125  124  125 1   
   126  124  127 1   
   127  124  136 1   
   128  125  126 2   
   129  125  144 1   
   130  127  128 1   
   131  127  137 1   
   132  127  138 1   
   133  128  129 ar  
   134  128  130 ar  
   135  129  131 ar  
   136  129  139 1   
   137  130  132 ar  
   138  130  140 1   
   139  131  133 ar  
   140  131  141 1   
   141  132  133 ar  
   142  132  142 1   
   143  133  134 1   
   144  134  143 1   
   145  144  145 1   
   146  144  153 1   
   147  145  146 1   
   148  145  148 1   
   149  145  154 1   
   150  146  147 2   
   151  146  159 1   
   152  148  149 1   
   153  148  155 1   
   154  148  156 1   
   155  149  150 1   
   156  149  157 1   
   157  149  158 1   
   158  150  151 1   
   159  150  152 1   
   160  159  160 1   
   161  159  168 1   
   162  160  161 1   
   163  160  163 1   
   164  160  169 1   
   165  161  162 2   
   166  161  174 1   
   167  163  164 1   
   168  163  170 1   
   169  163  171 1   
   170  164  165 1   
   171  164  172 1   
   172  164  173 1   
   173  165  166 1   
   174  165  167 1   
   175  174  175 1   
   176  174  179 1   
   177  175  176 1   
   178  175  177 1   
   179  175  178 1   
   180  181  182 1   
   181  181  183 1   
   182  184  185 1   
   183  184  186 1   
   184  187  188 1   
   185  187  189 1   
@<TRIPOS>SUBSTRUCTURE
     1 MOL         1 TEMP              0 ****  ****    0 ROOT
