@<TRIPOS>MOLECULE
MOL
  179   176     1     0     0
SMALL
resp


@<TRIPOS>ATOM
      1 C1          0.9980   -4.0800    5.9700 c3        1 MOL     -0.339630
      2 C2          1.1430   -3.8040    4.4690 c         1 MOL      0.711920
      3 O1          0.1470   -3.9530    3.7040 o         1 MOL     -0.622463
      4 H1          1.3700   -3.2250    6.5330 hc        1 MOL      0.095393
      5 H2         -0.0530   -4.2430    6.2100 hc        1 MOL      0.095393
      6 H3          1.5730   -4.9670    6.2340 hc        1 MOL      0.095393
      7 N1          2.3580   -3.5670    3.9500 n         1 MOL     -0.538269
      8 C3          2.6120   -3.1500    2.5530 c3        1 MOL      0.010626
      9 C4          3.0650   -4.3180    1.6780 c         1 MOL      0.521592
     10 O2          4.0980   -4.9290    1.8700 o         1 MOL     -0.525508
     11 C5          3.6260   -2.0280    2.5930 c3        1 MOL     -0.026837
     12 C6          3.5700   -1.1500    1.3250 c         1 MOL      0.451195
     13 O3          3.9990    0.0030    1.3690 o         1 MOL     -0.638583
     14 O4          3.2740   -1.6920    0.2390 o         1 MOL     -0.638583
     15 H4          3.1200   -3.5560    4.6250 hn        1 MOL      0.300763
     16 H5          1.7060   -2.7410    2.1200 h1        1 MOL      0.008354
     17 H6          4.6450   -2.4020    2.7000 hc        1 MOL      0.046301
     18 H7          3.4400   -1.3320    3.4120 hc        1 MOL      0.046301
     19 N2          2.2570   -4.4770    0.6510 n         1 MOL     -0.225511
     20 C7          2.4000   -5.6070   -0.3710 c3        1 MOL      0.006386
     21 C8          3.7210   -5.4050   -1.1730 c         1 MOL      0.448095
     22 O5          4.3380   -6.4060   -1.4930 o         1 MOL     -0.534079
     23 C9          1.2280   -5.6040   -1.4590 c3        1 MOL     -0.180436
     24 C10        -0.0600   -5.8190   -0.7920 c3        1 MOL      0.047185
     25 C11        -1.2300   -5.5690   -1.7480 c3        1 MOL      0.096143
     26 C12        -2.4920   -5.7830   -0.8830 c3        1 MOL      0.026401
     27 N3         -3.7330   -5.8360   -1.7200 n4        1 MOL     -0.322361
     28 H8          1.4550   -3.8710    0.6780 hn        1 MOL      0.114474
     29 H9          2.5060   -6.5320    0.1960 h1        1 MOL      0.101876
     30 H10         1.2980   -6.3700   -2.2330 hc        1 MOL      0.067557
     31 H11         1.1050   -4.6320   -1.9390 hc        1 MOL      0.067557
     32 H12        -0.2500   -5.2560    0.1280 hc        1 MOL      0.019878
     33 H13        -0.0390   -6.8450   -0.4110 hc        1 MOL      0.019878
     34 H14        -1.3050   -6.2970   -2.5590 hc        1 MOL     -0.006982
     35 H15        -1.2040   -4.5540   -2.1470 hc        1 MOL     -0.006982
     36 H16        -2.5480   -4.9490   -0.1810 hx        1 MOL      0.049347
     37 H17        -2.3820   -6.7550   -0.4060 hx        1 MOL      0.049347
     38 H18        -3.8480   -5.0530   -2.3460 hn        1 MOL      0.272298
     39 H19        -3.7940   -6.7650   -2.1110 hn        1 MOL      0.272298
     40 H20        -4.4910   -5.7740   -1.0480 hn        1 MOL      0.272298
     41 N4          4.0960   -4.1400   -1.3720 n         1 MOL     -0.262769
     42 C13         5.1790   -3.7170   -2.2580 c3        1 MOL      0.171368
     43 C14         6.3240   -3.0840   -1.5000 c         1 MOL      0.352730
     44 O6          7.3260   -2.8640   -2.1790 o         1 MOL     -0.508735
     45 C15         4.6330   -2.8020   -3.4130 c3        1 MOL     -0.321880
     46 C16         4.1570   -1.4530   -2.9830 c         1 MOL      0.945302
     47 O7          5.0360   -0.7390   -2.4190 o         1 MOL     -0.813084
     48 O8          2.9460   -1.2350   -2.9460 o         1 MOL     -0.813084
     49 H21         3.5750   -3.4470   -0.8360 hn        1 MOL      0.121357
     50 H22         5.6540   -4.5800   -2.7420 h1        1 MOL      0.094531
     51 H23         3.9090   -3.3630   -4.0010 hc        1 MOL      0.067686
     52 H24         5.4180   -2.6360   -4.1580 hc        1 MOL      0.067686
     53 N5          6.1580   -2.7710   -0.1770 n         1 MOL     -0.166090
     54 C17         7.2570   -2.2750    0.6360 c3        1 MOL     -0.109400
     55 C18         7.2270   -0.7470    0.7300 c         1 MOL      0.561036
     56 O9          7.7800   -0.2690    1.7540 o         1 MOL     -0.590549
     57 H25         5.2880   -3.0070    0.2690 hn        1 MOL      0.160317
     58 H26         8.2330   -2.5310    0.2190 h1        1 MOL      0.098779
     59 H27         7.1960   -2.6360    1.6670 h1        1 MOL      0.098779
     60 N6          6.9390   -0.0770   -0.3730 n         1 MOL     -0.222238
     61 C19         7.2350    1.2980   -0.5790 c3        1 MOL      0.079716
     62 C20         6.0470    2.1830   -0.1370 c         1 MOL      0.530246
     63 O10         4.9190    1.9880   -0.6610 o         1 MOL     -0.613387
     64 C21         7.5780    1.5790   -2.0580 c3        1 MOL     -0.154202
     65 C22         8.6860    0.8430   -2.7640 c         1 MOL      0.650931
     66 N7          8.5180   -0.4240   -3.0750 n         1 MOL     -0.776397
     67 O11         9.7330    1.4300   -2.9480 o         1 MOL     -0.579419
     68 H28         6.6040   -0.6220   -1.1480 hn        1 MOL      0.131479
     69 H29         8.0940    1.5560    0.0280 h1        1 MOL      0.047177
     70 H30         7.7880    2.6460   -2.1070 hc        1 MOL      0.043720
     71 H31         6.7050    1.4150   -2.6760 hc        1 MOL      0.043720
     72 H32         7.7020   -0.9530   -2.7850 hn        1 MOL      0.372633
     73 H33         9.3080   -0.8920   -3.4880 hn        1 MOL      0.372633
     74 N8          6.3040    3.2660    0.6480 n         1 MOL     -0.350313
     75 C23         5.7140    4.5320    0.4450 c3        1 MOL     -0.030998
     76 C24         4.3450    4.6480    1.1450 c         1 MOL      0.527879
     77 O12         4.2460    4.3110    2.3380 o         1 MOL     -0.508121
     78 H34         7.1930    3.2300    1.1190 hn        1 MOL      0.284370
     79 H35         5.6620    4.7000   -0.6300 h1        1 MOL      0.069729
     80 H36         6.3720    5.3220    0.8090 h1        1 MOL      0.069729
     81 N9          3.2980    4.9940    0.4770 n         1 MOL     -0.470226
     82 C25         1.9400    4.7760    0.9910 c3        1 MOL      0.085323
     83 C26         1.6090    3.2480    1.1600 c         1 MOL      0.573693
     84 O13         2.1790    2.5240    0.3660 o         1 MOL     -0.453879
     85 C27         0.8870    5.2760   -0.0220 c3        1 MOL     -0.049725
     86 C28         0.6180    6.7660   -0.2550 ca        1 MOL      0.043321
     87 C29        -0.1010    7.4930    0.7100 ca        1 MOL     -0.167045
     88 C30         1.2660    7.3870   -1.3170 ca        1 MOL     -0.167045
     89 C31        -0.3370    8.8550    0.4590 ca        1 MOL     -0.238829
     90 C32         1.0090    8.7610   -1.5690 ca        1 MOL     -0.238829
     91 C33         0.3260    9.4850   -0.6030 ca        1 MOL      0.329815
     92 O14         0.2320   10.8550   -0.7290 oh        1 MOL     -0.465420
     93 H37         3.3380    5.2010   -0.5110 hn        1 MOL      0.267098
     94 H38         1.7740    5.2930    1.9340 h1        1 MOL      0.061487
     95 H39        -0.0700    4.8500    0.2840 hc        1 MOL      0.022085
     96 H40         0.9780    4.7350   -0.9550 hc        1 MOL      0.022085
     97 H41        -0.5190    6.9610    1.5470 ha        1 MOL      0.126280
     98 H42         1.9300    6.8040   -1.9320 ha        1 MOL      0.126280
     99 H43        -1.0070    9.2880    1.1830 ha        1 MOL      0.163077
    100 H44         1.3680    9.2380   -2.4730 ha        1 MOL      0.163077
    101 H45        -0.2970   11.1560    0.0150 ho        1 MOL      0.351815
    102 N10         0.6060    2.9160    2.0710 n         1 MOL     -0.564978
    103 C34         0.1280    1.6300    2.4690 c3        1 MOL      0.005467
    104 C35        -0.1070    0.6540    1.3080 c         1 MOL      0.527849
    105 O15         0.8050    0.2350    0.6350 o         1 MOL     -0.586462
    106 C36         1.0680    1.0200    3.5120 c3        1 MOL      0.189274
    107 C37         0.6290   -0.3750    4.0490 c3        1 MOL      0.060689
    108 C38         1.2880    2.0520    4.6770 c3        1 MOL     -0.408750
    109 C39        -0.5770   -0.4070    5.0290 c3        1 MOL     -0.351066
    110 H46         0.1860    3.6850    2.5730 hn        1 MOL      0.322060
    111 H47        -0.8190    1.7050    3.0050 h1        1 MOL      0.067861
    112 H48         2.0510    0.8990    3.0570 hc        1 MOL      0.070268
    113 H49         1.5050   -0.7240    4.5990 hc        1 MOL      0.032200
    114 H50         0.4670   -1.0370    3.2010 hc        1 MOL      0.032200
    115 H51         0.3290    2.3640    5.0750 hc        1 MOL      0.103106
    116 H52         1.9410    1.7010    5.4800 hc        1 MOL      0.103106
    117 H53         1.7680    2.9010    4.2120 hc        1 MOL      0.103106
    118 H54        -0.8470   -1.4380    5.2380 hc        1 MOL      0.084023
    119 H55        -0.3570    0.1310    5.9540 hc        1 MOL      0.084023
    120 H56        -1.4570    0.0080    4.5360 hc        1 MOL      0.084023
    121 N11        -1.3220    0.1620    1.1320 n         1 MOL     -0.354183
    122 C40        -1.6940   -0.7520    0.0750 c3        1 MOL     -0.109952
    123 C41        -3.1420   -0.9250   -0.2870 c         1 MOL      0.593942
    124 O16        -3.5150   -1.6100   -1.2290 o         1 MOL     -0.506448
    125 C42        -1.2580   -2.1730    0.4830 c3        1 MOL     -0.175729
    126 O17         0.1360   -2.4380    0.2540 oh        1 MOL     -0.139824
    127 H57        -2.0570    0.6000    1.6690 hn        1 MOL      0.217351
    128 H58        -1.1240   -0.4950   -0.8290 h1        1 MOL      0.135190
    129 H59        -1.8490   -2.8390   -0.1520 h1        1 MOL      0.117057
    130 H60        -1.5870   -2.4410    1.4850 h1        1 MOL      0.117057
    131 H61         0.3860   -2.0860   -0.6040 ho        1 MOL      0.273640
    132 N12        -4.0080   -0.0770    0.2800 n         1 MOL     -0.504968
    133 C43        -5.3970   -0.0640    0.0160 c3        1 MOL      0.005829
    134 C44        -5.7210    0.6680   -1.3140 c         1 MOL      0.604301
    135 O18        -4.8630    1.4640   -1.7930 o         1 MOL     -0.561867
    136 C45        -6.0270    0.7720    1.1090 c3        1 MOL     -0.134446
    137 H62        -3.6670    0.4700    1.0630 hn        1 MOL      0.327785
    138 H63        -5.8710   -1.0480    0.0100 h1        1 MOL      0.101973
    139 H64        -7.0260    1.1290    0.8270 hc        1 MOL      0.055041
    140 H65        -6.1050    0.1790    2.0160 hc        1 MOL      0.055041
    141 H66        -5.3640    1.5560    1.4850 hc        1 MOL      0.055041
    142 N13        -6.8160    0.4000   -2.0420 n         1 MOL     -0.637053
    143 C46        -8.0060   -0.3890   -1.6330 c3        1 MOL      0.511851
    144 C47        -9.3180    0.0770   -2.3170 c         1 MOL      0.233188
    145 O19        -9.3880    0.4840   -3.5260 o         1 MOL     -0.513067
    146 C48        -7.7600   -1.9300   -1.8030 c3        1 MOL     -0.215336
    147 H67        -6.7150    0.7610   -2.9870 hn        1 MOL      0.341433
    148 H68        -8.1660   -0.2620   -0.5580 h1        1 MOL     -0.065199
    149 H69        -6.9890   -2.3870   -1.1900 hc        1 MOL      0.048221
    150 H70        -8.7210   -2.3970   -1.5440 hc        1 MOL      0.048221
    151 H71        -7.3950   -2.0600   -2.8210 hc        1 MOL      0.048221
    152 N14       -10.4720    0.1990   -1.6470 n         1 MOL     -0.188603
    153 C49       -10.7050   -0.1550   -0.2480 c3        1 MOL     -0.382000
    154 C50       -10.0900    0.8250    0.7750 c         1 MOL      0.562362
    155 O20        -9.6750    0.3920    1.8450 o         1 MOL     -0.521621
    156 C51       -12.2220   -0.2530   -0.1100 c3        1 MOL      0.070416
    157 C52       -12.9690   -1.4650   -0.7370 c3        1 MOL     -0.136423
    158 C53       -14.4660   -1.3060   -0.3830 c         1 MOL      0.596309
    159 O21       -14.9000   -1.6180    0.7870 o         1 MOL     -0.629721
    160 O22       -15.1680   -0.5540   -1.1360 o         1 MOL     -0.629721
    161 H72       -11.1860    0.6730   -2.1780 hn        1 MOL      0.290449
    162 H73       -10.3570   -1.1930   -0.1400 h1        1 MOL      0.164931
    163 H74       -12.6530    0.7030   -0.4120 hc        1 MOL      0.050006
    164 H75       -12.2680   -0.2670    0.9820 hc        1 MOL      0.050006
    165 H76       -12.7710   -2.4380   -0.2740 hc        1 MOL      0.019089
    166 H77       -12.9020   -1.5150   -1.8230 hc        1 MOL      0.019089
    167 N15       -10.0230    2.1140    0.4200 n         1 MOL     -0.291671
    168 C54        -9.3740    3.1630    1.1880 c3        1 MOL     -0.170894
    169 H78        -8.4600    2.7710    1.6350 h1        1 MOL      0.096861
    170 H79        -9.1280    3.9970    0.5310 h1        1 MOL      0.096861
    171 H80       -10.0450    3.5060    1.9750 h1        1 MOL      0.096861
    172 H81       -10.3900    2.2510   -0.5180 hn        1 MOL      0.244224
    173 Ca1         2.8910    0.5870   -1.0930 Ca        1 MOL      1.750994
    174 O23         3.5280    2.1060   -3.2050 oh        1 MOL     -0.876955
    175 H82         3.9840    1.9620   -4.0270 ho        1 MOL      0.432617
    176 H83         3.6190    3.0470   -3.0470 ho        1 MOL      0.432617
    177 O24         0.5020    1.6770   -2.1860 oh        1 MOL     -0.876955
    178 H84        -0.3880    1.3340   -2.2280 ho        1 MOL      0.432617
    179 H85         0.5000    2.4510   -2.7630 ho        1 MOL      0.432617
@<TRIPOS>BOND
     1    1    2 1   
     2    1    4 1   
     3    1    5 1   
     4    1    6 1   
     5    2    3 2   
     6    2    7 1   
     7    7    8 1   
     8    7   15 1   
     9    8    9 1   
    10    8   11 1   
    11    8   16 1   
    12    9   10 2   
    13    9   19 1   
    14   11   12 1   
    15   11   17 1   
    16   11   18 1   
    17   12   13 1   
    18   12   14 1   
    19   19   20 1   
    20   19   28 1   
    21   20   21 1   
    22   20   23 1   
    23   20   29 1   
    24   21   22 2   
    25   21   41 1   
    26   23   24 1   
    27   23   30 1   
    28   23   31 1   
    29   24   25 1   
    30   24   32 1   
    31   24   33 1   
    32   25   26 1   
    33   25   34 1   
    34   25   35 1   
    35   26   27 1   
    36   26   36 1   
    37   26   37 1   
    38   27   38 1   
    39   27   39 1   
    40   27   40 1   
    41   41   42 1   
    42   41   49 1   
    43   42   43 1   
    44   42   45 1   
    45   42   50 1   
    46   43   44 2   
    47   43   53 1   
    48   45   46 1   
    49   45   51 1   
    50   45   52 1   
    51   46   47 1   
    52   46   48 1   
    53   53   54 1   
    54   53   57 1   
    55   54   55 1   
    56   54   58 1   
    57   54   59 1   
    58   55   56 2   
    59   55   60 1   
    60   60   61 1   
    61   60   68 1   
    62   61   62 1   
    63   61   64 1   
    64   61   69 1   
    65   62   63 2   
    66   62   74 1   
    67   64   65 1   
    68   64   70 1   
    69   64   71 1   
    70   65   66 1   
    71   65   67 2   
    72   66   72 1   
    73   66   73 1   
    74   74   75 1   
    75   74   78 1   
    76   75   76 1   
    77   75   79 1   
    78   75   80 1   
    79   76   77 2   
    80   76   81 1   
    81   81   82 1   
    82   81   93 1   
    83   82   83 1   
    84   82   85 1   
    85   82   94 1   
    86   83   84 2   
    87   83  102 1   
    88   85   86 1   
    89   85   95 1   
    90   85   96 1   
    91   86   87 ar  
    92   86   88 ar  
    93   87   89 ar  
    94   87   97 1   
    95   88   90 ar  
    96   88   98 1   
    97   89   91 ar  
    98   89   99 1   
    99   90   91 ar  
   100   90  100 1   
   101   91   92 1   
   102   92  101 1   
   103  102  103 1   
   104  102  110 1   
   105  103  104 1   
   106  103  106 1   
   107  103  111 1   
   108  104  105 2   
   109  104  121 1   
   110  106  107 1   
   111  106  108 1   
   112  106  112 1   
   113  107  109 1   
   114  107  113 1   
   115  107  114 1   
   116  108  115 1   
   117  108  116 1   
   118  108  117 1   
   119  109  118 1   
   120  109  119 1   
   121  109  120 1   
   122  121  122 1   
   123  121  127 1   
   124  122  123 1   
   125  122  125 1   
   126  122  128 1   
   127  123  124 2   
   128  123  132 1   
   129  125  126 1   
   130  125  129 1   
   131  125  130 1   
   132  126  131 1   
   133  132  133 1   
   134  132  137 1   
   135  133  134 1   
   136  133  136 1   
   137  133  138 1   
   138  134  135 2   
   139  134  142 1   
   140  136  139 1   
   141  136  140 1   
   142  136  141 1   
   143  142  143 1   
   144  142  147 1   
   145  143  144 1   
   146  143  146 1   
   147  143  148 1   
   148  144  145 2   
   149  144  152 1   
   150  146  149 1   
   151  146  150 1   
   152  146  151 1   
   153  152  153 1   
   154  152  161 1   
   155  153  154 1   
   156  153  156 1   
   157  153  162 1   
   158  154  155 2   
   159  154  167 1   
   160  156  157 1   
   161  156  163 1   
   162  156  164 1   
   163  157  158 1   
   164  157  165 1   
   165  157  166 1   
   166  158  159 1   
   167  158  160 1   
   168  167  168 1   
   169  167  172 1   
   170  168  169 1   
   171  168  170 1   
   172  168  171 1   
   173  174  175 1   
   174  174  176 1   
   175  177  178 1   
   176  177  179 1   
@<TRIPOS>SUBSTRUCTURE
     1 MOL         1 TEMP              0 ****  ****    0 ROOT
