@<TRIPOS>MOLECULE
MOL
  189   185     1     0     0
SMALL
resp


@<TRIPOS>ATOM
      1 C1          8.7710   -0.3370    2.6040 c3        1 MOL     -0.593806
      2 C2          7.7090   -0.1250    1.4760 c         1 MOL      0.890620
      3 O1          6.6350    0.2940    1.7870 o         1 MOL     -0.645548
      4 H1          8.4460    0.1750    3.5090 hc        1 MOL      0.138522
      5 H2          8.8770   -1.4020    2.8080 hc        1 MOL      0.138522
      6 H3          9.7300    0.0680    2.2820 hc        1 MOL      0.138522
      7 N1          8.1090   -0.2270    0.2360 n         1 MOL     -0.775263
      8 C3          7.3720    0.0070   -0.9710 c3        1 MOL      0.533918
      9 C4          6.7570   -1.3190   -1.4850 c         1 MOL      0.158999
     10 O2          6.4850   -1.5040   -2.7010 o         1 MOL     -0.446100
     11 C5          8.2390    0.7410   -1.9610 c3        1 MOL     -0.385431
     12 C6          8.9640    2.0590   -1.6770 c         1 MOL      0.809130
     13 O3         10.0960    2.2880   -2.1400 o         1 MOL     -0.647272
     14 O4          8.4100    2.8910   -0.9730 o         1 MOL     -0.647272
     15 H4          9.0590   -0.5020    0.0600 hn        1 MOL      0.326445
     16 H5          6.5110    0.6590   -0.8250 h1        1 MOL      0.045602
     17 H6          7.6230    0.9210   -2.8490 hc        1 MOL      0.067188
     18 H7          9.0540    0.0370   -2.1580 hc        1 MOL      0.067188
     19 N2          6.5070   -2.3150   -0.6620 n         1 MOL     -0.082917
     20 C7          6.1220   -3.7090   -1.0090 c3        1 MOL      0.059274
     21 C8          4.6700   -3.8510   -1.5250 c         1 MOL      0.529639
     22 O5          4.4230   -4.5850   -2.4540 o         1 MOL     -0.561104
     23 C9          6.2400   -4.6060    0.2020 c3        1 MOL     -0.256685
     24 C10         7.7070   -4.9590    0.4510 c3        1 MOL      0.054641
     25 C11         7.8810   -5.8230    1.7260 c3        1 MOL      0.054525
     26 C12         9.3800   -6.0710    2.1510 c3        1 MOL     -0.014395
     27 N3          9.4360   -6.9900    3.2740 n4        1 MOL     -0.097479
     28 H8          6.6130   -2.1900    0.3340 hn        1 MOL      0.090650
     29 H9          6.7900   -4.1500   -1.7520 h1        1 MOL      0.083639
     30 H10         5.6550   -5.5290    0.1490 hc        1 MOL      0.089551
     31 H11         5.8030   -4.0300    1.0190 hc        1 MOL      0.089551
     32 H12         8.3630   -4.1070    0.6120 hc        1 MOL      0.008693
     33 H13         8.2240   -5.4080   -0.4040 hc        1 MOL      0.008693
     34 H14         7.3020   -6.7420    1.7050 hc        1 MOL      0.002315
     35 H15         7.4150   -5.3440    2.5870 hc        1 MOL      0.002315
     36 H16         9.8280   -5.1460    2.5040 hx        1 MOL      0.069117
     37 H17         9.9050   -6.4430    1.2730 hx        1 MOL      0.069117
     38 H18        10.3730   -7.0720    3.6680 hn        1 MOL      0.211382
     39 H19         8.8820   -6.7580    4.0870 hn        1 MOL      0.211382
     40 H20         9.1890   -7.9430    3.0660 hn        1 MOL      0.211382
     41 N4          3.5970   -3.1830   -1.0740 n         1 MOL     -0.422538
     42 C13         3.4860   -2.1930    0.0480 c3        1 MOL      0.014428
     43 C14         3.6190   -0.7180   -0.4120 c         1 MOL      0.277533
     44 O6          3.8250   -0.4320   -1.5680 o         1 MOL     -0.312895
     45 C15         2.2530   -2.4720    0.8580 c3        1 MOL     -0.353185
     46 C16         0.8990   -2.5390    0.1380 c         1 MOL      0.901152
     47 O7          0.7050   -1.6460   -0.7860 o         1 MOL     -0.731589
     48 O8          0.1460   -3.4520    0.4380 o         1 MOL     -0.731589
     49 H21         2.7260   -3.4080   -1.5420 hn        1 MOL      0.353078
     50 H22         4.2870   -2.2630    0.7870 h1        1 MOL      0.097423
     51 H23         2.1440   -1.7490    1.6700 hc        1 MOL      0.076596
     52 H24         2.4510   -3.4060    1.3830 hc        1 MOL      0.076596
     53 N5          3.6230    0.2990    0.4620 n         1 MOL     -0.379376
     54 C17         3.9640    1.6520    0.1420 c3        1 MOL      0.071190
     55 C18         2.7920    2.2990   -0.6470 c         1 MOL      0.532672
     56 O9          1.6520    1.7130   -0.5890 o         1 MOL     -0.668544
     57 H25         3.4770    0.1330    1.4460 hn        1 MOL      0.263274
     58 H26         4.8540    1.7150   -0.4890 h1        1 MOL      0.084390
     59 H27         4.3180    2.3220    0.9290 h1        1 MOL      0.084390
     60 N6          2.9830    3.4960   -1.1490 n         1 MOL     -0.455630
     61 C19         1.9780    4.3810   -1.7880 c3        1 MOL      0.342213
     62 C20         2.4150    5.8870   -1.7680 c         1 MOL      0.412438
     63 O10         3.6030    6.1830   -1.7810 o         1 MOL     -0.490907
     64 C21         1.5540    4.0230   -3.2010 c3        1 MOL     -0.094997
     65 C22         1.4820    2.5420   -3.4150 c         1 MOL      0.592715
     66 O11         2.5490    2.0020   -3.8370 o         1 MOL     -0.592859
     67 O12         0.4330    1.8730   -3.2210 o         1 MOL     -0.592859
     68 H28         3.9130    3.8770   -1.0300 hn        1 MOL      0.287125
     69 H29         1.0410    4.2570   -1.2530 h1        1 MOL     -0.123365
     70 H30         2.1740    4.4900   -3.9680 hc        1 MOL      0.028843
     71 H31         0.5520    4.4150   -3.3760 hc        1 MOL      0.028843
     72 N7          1.5320    6.8920   -1.6200 n         1 MOL     -0.507939
     73 C23         0.1250    6.6990   -1.2440 c3        1 MOL      0.039992
     74 C24        -0.0960    6.0680    0.1670 c         1 MOL      0.613463
     75 O13         0.8930    5.8520    0.8550 o         1 MOL     -0.485047
     76 H32         1.9700    7.7680   -1.3920 hn        1 MOL      0.340407
     77 H33        -0.3180    6.1480   -2.0710 h1        1 MOL      0.040543
     78 H34        -0.3660    7.6730   -1.2360 h1        1 MOL      0.040543
     79 N8         -1.3260    5.8230    0.6120 n         1 MOL     -0.644528
     80 C25        -1.6630    5.0230    1.8260 c3        1 MOL      0.131516
     81 C26        -1.0620    3.6230    1.8130 c         1 MOL      0.497775
     82 O14        -0.9950    3.0420    0.7720 o         1 MOL     -0.301954
     83 C27        -3.1600    4.9480    2.1380 c3        1 MOL      0.367794
     84 C28        -4.0080    4.0100    1.2840 c3        1 MOL     -0.175247
     85 O15        -3.6680    6.2580    1.9530 oh        1 MOL     -0.626244
     86 H35        -1.9960    6.1900   -0.0530 hn        1 MOL      0.308927
     87 H36        -1.2950    5.5000    2.7290 h1        1 MOL      0.011776
     88 H37        -3.3590    4.7610    3.2010 h1        1 MOL     -0.037756
     89 H38        -3.2020    6.8250    2.5700 ho        1 MOL      0.385458
     90 H39        -3.6270    3.9760    0.2670 hc        1 MOL      0.060452
     91 H40        -3.8930    2.9930    1.6580 hc        1 MOL      0.060452
     92 H41        -5.0270    4.3950    1.2490 hc        1 MOL      0.060452
     93 N9         -0.8420    3.0930    3.0030 n         1 MOL     -0.637472
     94 C29        -0.2850    1.7700    3.2250 c3        1 MOL      0.095176
     95 C30        -0.9320    0.5910    2.4500 c         1 MOL      0.680954
     96 O16        -0.5180    0.2710    1.3230 o         1 MOL     -0.491178
     97 C31         1.2490    1.8140    3.0890 c3        1 MOL     -0.061930
     98 C32         1.8090    2.9560    4.0100 c3        1 MOL      0.072182
     99 C33         1.8520    0.4830    3.5600 c3        1 MOL     -0.652980
    100 C34         3.2940    2.9240    4.2980 c3        1 MOL     -0.149317
    101 H42        -1.0370    3.6200    3.8470 hn        1 MOL      0.302541
    102 H43        -0.4820    1.5440    4.2770 h1        1 MOL      0.057614
    103 H44         1.5080    2.1340    2.0870 hc        1 MOL      0.103822
    104 H45         1.3030    2.9170    4.9740 hc        1 MOL      0.001448
    105 H46         1.6120    3.9150    3.5370 hc        1 MOL      0.001448
    106 H47         2.9060    0.4290    3.2950 hc        1 MOL      0.185812
    107 H48         1.6120    0.3310    4.6100 hc        1 MOL      0.185812
    108 H49         1.3840   -0.3670    3.0540 hc        1 MOL      0.185812
    109 H50         3.4870    3.8700    4.8170 hc        1 MOL      0.046195
    110 H51         3.5000    2.0620    4.9270 hc        1 MOL      0.046195
    111 H52         3.8260    2.7910    3.3590 hc        1 MOL      0.046195
    112 N10        -2.0280   -0.0480    2.9620 n         1 MOL     -0.438077
    113 C35        -2.4810   -1.3870    2.4990 c3        1 MOL     -0.041499
    114 C36        -3.9720   -1.5610    2.2710 c         1 MOL      0.548296
    115 O17        -4.5730   -2.6430    2.4150 o         1 MOL     -0.574078
    116 C37        -1.8580   -2.5270    3.2950 c3        1 MOL      0.533067
    117 C38        -2.1050   -2.4530    4.8240 c3        1 MOL     -0.315568
    118 O18        -0.4290   -2.5390    3.0110 oh        1 MOL     -0.663064
    119 H53        -2.3310    0.3450    3.8400 hn        1 MOL      0.224720
    120 H54        -1.9920   -1.4800    1.5360 h1        1 MOL     -0.163061
    121 H55        -2.2270   -3.5040    2.9750 h1        1 MOL     -0.019418
    122 H56        -0.2910   -2.8880    2.1210 ho        1 MOL      0.362107
    123 H57        -3.1630   -2.6550    4.9790 hc        1 MOL      0.070360
    124 H58        -1.5660   -3.2650    5.3200 hc        1 MOL      0.070360
    125 H59        -1.7940   -1.5060    5.2680 hc        1 MOL      0.070360
    126 N11        -4.6280   -0.3940    1.9980 n         1 MOL     -0.234757
    127 C39        -6.0540   -0.3750    1.8410 c3        1 MOL     -0.063331
    128 C40        -6.4190   -0.5950    0.3860 c         1 MOL      0.538898
    129 O19        -5.9240    0.1840   -0.3840 o         1 MOL     -0.513064
    130 C41        -6.6850    0.8990    2.4100 c3        1 MOL      0.428768
    131 C42        -8.1950    0.8660    2.4390 c3        1 MOL     -0.508096
    132 O20        -6.3320    1.1000    3.7550 oh        1 MOL     -0.658197
    133 H60        -4.1680    0.4930    1.8460 hn        1 MOL      0.237936
    134 H61        -6.5500   -1.1500    2.4350 h1        1 MOL      0.085132
    135 H62        -6.3540    1.7930    1.8870 h1        1 MOL     -0.041488
    136 H63        -6.6080    1.9900    3.9590 ho        1 MOL      0.410920
    137 H64        -8.3970   -0.0170    3.0490 hc        1 MOL      0.125242
    138 H65        -8.6330    1.7510    2.8990 hc        1 MOL      0.125242
    139 H66        -8.5930    0.7040    1.4320 hc        1 MOL      0.125242
    140 N12        -7.1520   -1.6560    0.0940 n         1 MOL     -0.418954
    141 C43        -7.6420   -2.0590   -1.2470 c3        1 MOL      0.312981
    142 C44        -6.4120   -2.0050   -2.1920 c         1 MOL      0.389208
    143 O21        -6.4190   -1.2660   -3.1630 o         1 MOL     -0.479297
    144 C45        -8.9520   -1.2960   -1.7320 c3        1 MOL     -0.521608
    145 C46       -10.1950   -1.2920   -0.7630 c3        1 MOL      0.096355
    146 C47       -10.7310   -2.7720   -0.7430 c3        1 MOL     -0.085869
    147 C48       -11.8510   -2.7870    0.2040 c3        1 MOL      0.088438
    148 N13       -12.8030   -3.9360   -0.1760 n4        1 MOL     -0.191852
    149 H67        -7.3650   -2.2400    0.8960 hn        1 MOL      0.234751
    150 H68        -7.9470   -3.1040   -1.1820 h1        1 MOL     -0.010383
    151 H69        -9.1460   -1.7080   -2.7210 hc        1 MOL      0.173219
    152 H70        -8.6550   -0.2680   -1.9720 hc        1 MOL      0.173219
    153 H71       -10.9750   -0.6730   -1.2060 hc        1 MOL      0.033314
    154 H72        -9.9860   -0.8230    0.2080 hc        1 MOL      0.033314
    155 H73       -10.0240   -3.5240   -0.3890 hc        1 MOL      0.055693
    156 H74       -11.0790   -3.0110   -1.7520 hc        1 MOL      0.055693
    157 H75       -12.3250   -1.8160    0.0290 hx        1 MOL      0.038155
    158 H76       -11.4840   -2.8960    1.2240 hx        1 MOL      0.038155
    159 H77       -13.5940   -3.9260    0.4510 hn        1 MOL      0.195673
    160 H78       -13.0830   -3.8010   -1.1370 hn        1 MOL      0.195673
    161 H79       -12.3730   -4.8440   -0.0470 hn        1 MOL      0.195673
    162 N14        -5.3350   -2.6600   -1.8630 n         1 MOL     -0.558470
    163 C49        -3.9820   -2.3280   -2.3200 c3        1 MOL      0.405183
    164 C50        -2.8600   -2.5000   -1.2720 c         1 MOL      0.439713
    165 O22        -2.3390   -1.4890   -0.7870 o         1 MOL     -0.761188
    166 C51        -3.6750   -3.0000   -3.7170 c3        1 MOL     -0.369630
    167 C52        -2.3220   -2.5000   -4.2890 c3        1 MOL      0.094633
    168 C53        -2.1990   -0.9410   -4.4010 c         1 MOL      0.501296
    169 O23        -1.8780   -0.2610   -3.3970 o         1 MOL     -0.625043
    170 O24        -2.5660   -0.4270   -5.4660 o         1 MOL     -0.625043
    171 H80        -5.4190   -3.3590   -1.1380 hn        1 MOL      0.270509
    172 H81        -3.9870   -1.2600   -2.5090 h1        1 MOL      0.134242
    173 H82        -4.4680   -2.6960   -4.3900 hc        1 MOL      0.099205
    174 H83        -3.6620   -4.0740   -3.5810 hc        1 MOL      0.099205
    175 H84        -2.2520   -2.9890   -5.2550 hc        1 MOL     -0.007232
    176 H85        -1.4380   -2.8530   -3.7550 hc        1 MOL     -0.007232
    177 N15        -2.4550   -3.6580   -0.7670 n         1 MOL     -0.271684
    178 C54        -2.6400   -5.0140   -1.2450 c3        1 MOL     -0.209120
    179 H86        -2.8450   -4.9960   -2.3150 h1        1 MOL      0.083456
    180 H87        -1.7340   -5.5920   -1.0580 h1        1 MOL      0.083456
    181 H88        -3.4780   -5.4730   -0.7220 h1        1 MOL      0.083456
    182 H89        -1.7040   -3.4810   -0.1170 hn        1 MOL      0.411374
    183 Ca1        -0.6520    0.5990   -1.2310 Ca        1 MOL      1.750820
    184 O25        -2.3780    2.4900   -2.4890 oh        1 MOL     -0.944923
    185 H90        -2.7390    2.1010   -3.2800 ho        1 MOL      0.440614
    186 H91        -2.2450    3.4090   -2.7070 ho        1 MOL      0.440614
    187 O26        -3.3500    0.9960   -0.4480 oh        1 MOL     -0.944923
    188 H92        -4.1090    0.4140   -0.4850 ho        1 MOL      0.440614
    189 H93        -3.5720    1.7020   -1.0550 ho        1 MOL      0.440614
@<TRIPOS>BOND
     1    1    2 1   
     2    1    4 1   
     3    1    5 1   
     4    1    6 1   
     5    2    3 2   
     6    2    7 1   
     7    7    8 1   
     8    7   15 1   
     9    8    9 1   
    10    8   11 1   
    11    8   16 1   
    12    9   10 2   
    13    9   19 1   
    14   11   12 1   
    15   11   17 1   
    16   11   18 1   
    17   12   13 1   
    18   12   14 1   
    19   19   20 1   
    20   19   28 1   
    21   20   21 1   
    22   20   23 1   
    23   20   29 1   
    24   21   22 2   
    25   21   41 1   
    26   23   24 1   
    27   23   30 1   
    28   23   31 1   
    29   24   25 1   
    30   24   32 1   
    31   24   33 1   
    32   25   26 1   
    33   25   34 1   
    34   25   35 1   
    35   26   27 1   
    36   26   36 1   
    37   26   37 1   
    38   27   38 1   
    39   27   39 1   
    40   27   40 1   
    41   41   42 1   
    42   41   49 1   
    43   42   43 1   
    44   42   45 1   
    45   42   50 1   
    46   43   44 2   
    47   43   53 1   
    48   45   46 1   
    49   45   51 1   
    50   45   52 1   
    51   46   47 1   
    52   46   48 1   
    53   53   54 1   
    54   53   57 1   
    55   54   55 1   
    56   54   58 1   
    57   54   59 1   
    58   55   56 2   
    59   55   60 1   
    60   60   61 1   
    61   60   68 1   
    62   61   62 1   
    63   61   64 1   
    64   61   69 1   
    65   62   63 2   
    66   62   72 1   
    67   64   65 1   
    68   64   70 1   
    69   64   71 1   
    70   65   66 1   
    71   65   67 1   
    72   72   73 1   
    73   72   76 1   
    74   73   74 1   
    75   73   77 1   
    76   73   78 1   
    77   74   75 2   
    78   74   79 1   
    79   79   80 1   
    80   79   86 1   
    81   80   81 1   
    82   80   83 1   
    83   80   87 1   
    84   81   82 2   
    85   81   93 1   
    86   83   84 1   
    87   83   85 1   
    88   83   88 1   
    89   84   90 1   
    90   84   91 1   
    91   84   92 1   
    92   85   89 1   
    93   93   94 1   
    94   93  101 1   
    95   94   95 1   
    96   94   97 1   
    97   94  102 1   
    98   95   96 2   
    99   95  112 1   
   100   97   98 1   
   101   97   99 1   
   102   97  103 1   
   103   98  100 1   
   104   98  104 1   
   105   98  105 1   
   106   99  106 1   
   107   99  107 1   
   108   99  108 1   
   109  100  109 1   
   110  100  110 1   
   111  100  111 1   
   112  112  113 1   
   113  112  119 1   
   114  113  114 1   
   115  113  116 1   
   116  113  120 1   
   117  114  115 2   
   118  114  126 1   
   119  116  117 1   
   120  116  118 1   
   121  116  121 1   
   122  117  123 1   
   123  117  124 1   
   124  117  125 1   
   125  118  122 1   
   126  126  127 1   
   127  126  133 1   
   128  127  128 1   
   129  127  130 1   
   130  127  134 1   
   131  128  129 2   
   132  128  140 1   
   133  130  131 1   
   134  130  132 1   
   135  130  135 1   
   136  131  137 1   
   137  131  138 1   
   138  131  139 1   
   139  132  136 1   
   140  140  141 1   
   141  140  149 1   
   142  141  142 1   
   143  141  144 1   
   144  141  150 1   
   145  142  143 2   
   146  142  162 1   
   147  144  145 1   
   148  144  151 1   
   149  144  152 1   
   150  145  146 1   
   151  145  153 1   
   152  145  154 1   
   153  146  147 1   
   154  146  155 1   
   155  146  156 1   
   156  147  148 1   
   157  147  157 1   
   158  147  158 1   
   159  148  159 1   
   160  148  160 1   
   161  148  161 1   
   162  162  163 1   
   163  162  171 1   
   164  163  164 1   
   165  163  166 1   
   166  163  172 1   
   167  164  165 2   
   168  164  177 1   
   169  166  167 1   
   170  166  173 1   
   171  166  174 1   
   172  167  168 1   
   173  167  175 1   
   174  167  176 1   
   175  168  169 1   
   176  168  170 1   
   177  177  178 1   
   178  177  182 1   
   179  178  179 1   
   180  178  180 1   
   181  178  181 1   
   182  184  185 1   
   183  184  186 1   
   184  187  188 1   
   185  187  189 1   
@<TRIPOS>SUBSTRUCTURE
     1 MOL         1 TEMP              0 ****  ****    0 ROOT
