@<TRIPOS>MOLECULE
MOL
  182   178     1     0     0
SMALL
resp


@<TRIPOS>ATOM
      1 C1          0.2800   -3.3240    6.2050 c3        1 MOL     -0.370026
      2 C2          0.5360   -3.0400    4.7270 c         1 MOL      0.728915
      3 O1         -0.2560   -3.3320    3.8500 o         1 MOL     -0.559953
      4 H1          0.0360   -2.3920    6.7170 hc        1 MOL      0.108962
      5 H2         -0.5520   -4.0210    6.3030 hc        1 MOL      0.108962
      6 H3          1.1730   -3.7590    6.6520 hc        1 MOL      0.108962
      7 N1          1.7700   -2.6870    4.3550 n         1 MOL     -0.558910
      8 C3          2.2430   -2.5780    2.9340 c3        1 MOL      0.042882
      9 C4          2.1110   -3.9070    2.1460 c         1 MOL      0.570153
     10 O2          2.4000   -4.9250    2.7480 o         1 MOL     -0.566035
     11 C5          3.5810   -1.8320    2.8900 c3        1 MOL     -0.027603
     12 C6          3.8420   -1.1690    1.5240 c         1 MOL      0.576767
     13 O3          4.5370   -0.1960    1.4710 o         1 MOL     -0.668380
     14 O4          3.3720   -1.6710    0.4660 o         1 MOL     -0.668380
     15 H4          2.4140   -2.4090    5.0860 hn        1 MOL      0.287555
     16 H5          1.4410   -1.9860    2.4980 h1        1 MOL      0.094364
     17 H6          4.3680   -2.5230    3.1880 hc        1 MOL      0.039484
     18 H7          3.5800   -0.9840    3.5810 hc        1 MOL      0.039484
     19 N2          1.8800   -3.9180    0.8300 n         1 MOL     -0.197082
     20 C7          1.8060   -5.1140   -0.0650 c3        1 MOL     -0.031966
     21 C8          3.0310   -5.2290   -1.0310 c         1 MOL      0.580566
     22 O5          3.0800   -6.2050   -1.8360 o         1 MOL     -0.553829
     23 C9          0.3950   -5.1640   -0.6920 c3        1 MOL      0.152263
     24 C10         0.0790   -6.5890   -1.2610 c3        1 MOL     -0.036680
     25 C11        -1.3820   -6.6000   -1.8190 c3        1 MOL     -0.088045
     26 C12        -1.8510   -7.9410   -2.3880 c3        1 MOL      0.140260
     27 N3         -3.1760   -7.8030   -3.0850 n4        1 MOL     -0.342910
     28 H8          1.8640   -3.0180    0.3830 hn        1 MOL     -0.019207
     29 H9          1.8960   -5.9990    0.5710 h1        1 MOL      0.074211
     30 H10         0.2500   -4.4310   -1.4830 hc        1 MOL     -0.030247
     31 H11        -0.3360   -4.9250    0.0880 hc        1 MOL     -0.030247
     32 H12         0.3280   -7.3250   -0.4990 hc        1 MOL      0.035140
     33 H13         0.7160   -6.7700   -2.1290 hc        1 MOL      0.035140
     34 H14        -1.5150   -5.9290   -2.6690 hc        1 MOL      0.045056
     35 H15        -2.0450   -6.2430   -1.0360 hc        1 MOL      0.045056
     36 H16        -1.8780   -8.6720   -1.5940 hx        1 MOL      0.049990
     37 H17        -1.1300   -8.3380   -3.1130 hx        1 MOL      0.049990
     38 H18        -3.9310   -7.8350   -2.4050 hn        1 MOL      0.296211
     39 H19        -3.1980   -6.9200   -3.5600 hn        1 MOL      0.296211
     40 H20        -3.3510   -8.6010   -3.6800 hn        1 MOL      0.296211
     41 N4          3.9290   -4.1960   -0.9680 n         1 MOL     -0.567669
     42 C13         5.1250   -4.1970   -1.8380 c3        1 MOL      0.161333
     43 C14         6.3570   -3.5170   -1.2060 c         1 MOL      0.252893
     44 O6          7.3950   -3.5030   -1.9020 o         1 MOL     -0.475851
     45 C15         4.6770   -3.5400   -3.1570 c3        1 MOL     -0.330478
     46 C16         3.9020   -2.2260   -2.9270 c         1 MOL      0.909127
     47 O7          4.4250   -1.2450   -2.3550 o         1 MOL     -0.794117
     48 O8          2.7310   -2.0730   -3.4270 o         1 MOL     -0.794117
     49 H21         3.6750   -3.3650   -0.4390 hn        1 MOL      0.267305
     50 H22         5.2780   -5.2530   -2.0570 h1        1 MOL      0.109545
     51 H23         4.0810   -4.2540   -3.7160 hc        1 MOL      0.101413
     52 H24         5.5860   -3.3380   -3.7230 hc        1 MOL      0.101413
     53 N5          6.3900   -2.9900    0.0880 n         1 MOL      0.012241
     54 C17         7.6180   -2.5010    0.6750 c3        1 MOL     -0.373143
     55 C18         7.9440   -1.0250    0.3870 c         1 MOL      0.555320
     56 O9          8.9560   -0.5990    0.9940 o         1 MOL     -0.526821
     57 H25         5.6270   -3.3260    0.6550 hn        1 MOL      0.164643
     58 H26         8.4230   -3.1610    0.3430 h1        1 MOL      0.155858
     59 H27         7.4900   -2.5460    1.7590 h1        1 MOL      0.155858
     60 N6          7.2050   -0.1920   -0.3880 n         1 MOL     -0.208591
     61 C19         7.4810    1.2510   -0.5010 c3        1 MOL      0.023963
     62 C20         6.1760    2.0480   -0.7640 c         1 MOL      0.463981
     63 O10         5.0340    1.5190   -0.7970 o         1 MOL     -0.318295
     64 C21         8.5390    1.3960   -1.6470 c3        1 MOL     -0.302902
     65 C22         9.9950    0.9700   -1.4400 c         1 MOL      0.683433
     66 N7         10.2860   -0.2020   -2.0050 n         1 MOL     -0.793071
     67 O11        10.8890    1.7070   -1.0140 o         1 MOL     -0.551876
     68 H28         6.3090   -0.4840   -0.7250 hn        1 MOL      0.174596
     69 H29         8.0450    1.6220    0.3550 h1        1 MOL      0.087527
     70 H30         8.6850    2.4500   -1.8870 hc        1 MOL      0.069406
     71 H31         8.0740    0.8330   -2.4550 hc        1 MOL      0.069406
     72 H32         9.5570   -0.7600   -2.4220 hn        1 MOL      0.374156
     73 H33        11.2740   -0.4090   -1.9600 hn        1 MOL      0.374156
     74 N8          6.2630    3.4050   -0.9760 n         1 MOL     -0.506240
     75 C23         5.1950    4.3870   -1.2270 c3        1 MOL      0.012972
     76 C24         4.2650    4.5120   -0.0860 c         1 MOL      0.514496
     77 O12         4.5830    4.3570    1.0810 o         1 MOL     -0.473445
     78 H34         7.2140    3.7500   -1.0420 hn        1 MOL      0.339869
     79 H35         4.7350    4.0970   -2.1650 h1        1 MOL      0.063576
     80 H36         5.6460    5.3550   -1.4610 h1        1 MOL      0.063576
     81 N9          3.0050    4.7550   -0.4720 n         1 MOL     -0.418961
     82 C25         1.8290    4.7960    0.3320 c3        1 MOL      0.082245
     83 C26         1.5060    3.3860    0.9380 c         1 MOL      0.677146
     84 O13         2.1370    2.4100    0.5130 o         1 MOL     -0.620730
     85 C27         0.6740    5.4220   -0.4700 c3        1 MOL     -0.035925
     86 C28         0.8320    6.9270   -0.6330 ca        1 MOL      0.000233
     87 C29         0.5530    7.7420    0.4500 ca        1 MOL     -0.103486
     88 C30         1.1440    7.4840   -1.9170 ca        1 MOL     -0.103486
     89 C31         0.5090    9.1150    0.2590 ca        1 MOL     -0.271574
     90 C32         1.2300    8.8300   -2.0600 ca        1 MOL     -0.271574
     91 C33         0.8590    9.6790   -1.0120 ca        1 MOL      0.359375
     92 O14         1.0750   11.0660   -1.0770 oh        1 MOL     -0.498134
     93 H37         2.8470    4.8440   -1.4710 hn        1 MOL      0.201731
     94 H38         1.9800    5.5170    1.1400 h1        1 MOL      0.042580
     95 H39        -0.2300    5.2070    0.0950 hc        1 MOL      0.022141
     96 H40         0.5190    4.9260   -1.4240 hc        1 MOL      0.022141
     97 H41         0.1910    7.2400    1.3440 ha        1 MOL      0.112127
     98 H42         1.5270    6.8510   -2.7060 ha        1 MOL      0.112127
     99 H43         0.3860    9.8420    1.0580 ha        1 MOL      0.162936
    100 H44         1.4940    9.2500   -3.0180 ha        1 MOL      0.162936
    101 H45         0.9820   11.5220   -0.2330 ho        1 MOL      0.370633
    102 N10         0.5270    3.2270    1.8430 n         1 MOL     -0.681052
    103 C34         0.0920    1.9110    2.4200 c3        1 MOL     -0.056783
    104 C35        -0.2520    0.8150    1.4860 c         1 MOL      0.672491
    105 O15         0.6300    0.2060    0.8200 o         1 MOL     -0.553233
    106 C36         1.0910    1.3880    3.4830 c3        1 MOL      0.339021
    107 C37         0.4970    0.3070    4.4380 c3        1 MOL     -0.077923
    108 C38         1.8270    2.5660    4.2730 c3        1 MOL     -0.427885
    109 C39        -0.5360    0.8530    5.4470 c3        1 MOL     -0.189619
    110 H46         0.1510    4.0840    2.2100 hn        1 MOL      0.362026
    111 H47        -0.8440    2.1480    2.9270 h1        1 MOL      0.085399
    112 H48         1.9150    0.8380    3.0380 hc        1 MOL     -0.004884
    113 H49         1.2720   -0.0970    5.0780 hc        1 MOL      0.034023
    114 H50         0.0310   -0.5240    3.9170 hc        1 MOL      0.034023
    115 H51         1.2570    3.4980    4.2900 hc        1 MOL      0.112962
    116 H52         2.0150    2.3040    5.3170 hc        1 MOL      0.112962
    117 H53         2.7680    2.7860    3.7790 hc        1 MOL      0.112962
    118 H54        -0.9480    0.0240    6.0240 hc        1 MOL      0.038485
    119 H55        -0.0890    1.6600    6.0290 hc        1 MOL      0.038485
    120 H56        -1.3220    1.3050    4.8310 hc        1 MOL      0.038485
    121 N11        -1.5360    0.3360    1.4640 n         1 MOL     -0.385797
    122 C40        -1.8960   -0.7410    0.4910 c3        1 MOL     -0.508751
    123 C41        -3.4080   -0.8210    0.2120 c         1 MOL      0.775451
    124 O16        -3.9580   -1.6300   -0.5670 o         1 MOL     -0.623544
    125 C42        -1.5140   -2.1090    1.0500 c3        1 MOL      0.421801
    126 O17        -2.0210   -2.1820    2.3760 oh        1 MOL     -0.610213
    127 H57        -2.2180    0.7300    2.0910 hn        1 MOL      0.279765
    128 H58        -1.4300   -0.5910   -0.4830 h1        1 MOL      0.236421
    129 H59        -0.4260   -2.2080    1.0650 h1        1 MOL     -0.006911
    130 H60        -1.9610   -2.9240    0.4800 h1        1 MOL     -0.006911
    131 H61        -1.3540   -2.5140    2.9820 ho        1 MOL      0.343570
    132 N12        -4.3020    0.0470    0.7560 n         1 MOL     -0.487164
    133 C43        -5.7490    0.0580    0.3590 c3        1 MOL      0.112671
    134 C44        -5.9440    0.7710   -1.0360 c         1 MOL      0.563262
    135 O18        -5.0460    1.4510   -1.5060 o         1 MOL     -0.574593
    136 C45        -6.4990    0.7710    1.4800 c3        1 MOL     -0.356386
    137 H62        -4.0190    0.7410    1.4330 hn        1 MOL      0.262294
    138 H63        -6.1400   -0.9620    0.3600 h1        1 MOL      0.115143
    139 H64        -5.9300    1.5850    1.9200 hc        1 MOL      0.102185
    140 H65        -7.4970    1.1620    1.2960 hc        1 MOL      0.102185
    141 H66        -6.5660   -0.0350    2.2150 hc        1 MOL      0.102185
    142 N13        -7.0650    0.5880   -1.7830 n         1 MOL     -0.451076
    143 C46        -8.1330   -0.4410   -1.5240 c3        1 MOL      0.275229
    144 C47        -9.4830   -0.1050   -2.0690 c         1 MOL      0.318900
    145 O19        -9.6410    0.4600   -3.1880 o         1 MOL     -0.511778
    146 C48        -7.6580   -1.6480   -2.2610 c3        1 MOL     -0.357483
    147 H67        -7.2220    1.2530   -2.5260 hn        1 MOL      0.280847
    148 H68        -8.2940   -0.6800   -0.4690 h1        1 MOL      0.008285
    149 H69        -6.6070   -1.8740   -2.0840 hc        1 MOL      0.091926
    150 H70        -8.3100   -2.4420   -1.8720 hc        1 MOL      0.091926
    151 H71        -7.8070   -1.5370   -3.3320 hc        1 MOL      0.091926
    152 N14       -10.5690   -0.3300   -1.3200 n         1 MOL     -0.087896
    153 C49       -10.6660   -0.5360    0.1170 c3        1 MOL     -0.368717
    154 C50       -10.2070    0.7240    0.8970 c         1 MOL      0.687820
    155 O20        -9.7750    0.6220    2.0390 o         1 MOL     -0.590366
    156 C51       -12.0690   -0.9410    0.5320 c3        1 MOL     -0.121998
    157 C52       -13.1090    0.1620    0.3640 c3        1 MOL     -0.133738
    158 C53       -13.6770    0.1130   -1.0170 c         1 MOL      0.721582
    159 O21       -14.6200   -0.6280   -1.2400 o         1 MOL     -0.667817
    160 O22       -13.1770    0.8350   -1.8830 o         1 MOL     -0.667817
    161 H72       -11.4660    0.0140   -1.6320 hn        1 MOL      0.169717
    162 H73        -9.9930   -1.3610    0.3590 h1        1 MOL      0.122818
    163 H74       -12.0740   -1.1660    1.6030 hc        1 MOL      0.084542
    164 H75       -12.4430   -1.8120   -0.0170 hc        1 MOL      0.084542
    165 H76       -12.7740    1.1480    0.6660 hc        1 MOL      0.021790
    166 H77       -13.8720   -0.0360    1.1280 hc        1 MOL      0.021790
    167 N15       -10.0880    1.8530    0.1940 n         1 MOL     -0.308065
    168 C54        -9.4390    3.1170    0.6150 c3        1 MOL     -0.125205
    169 H78        -9.4910    3.2070    1.7000 h1        1 MOL      0.079274
    170 H79        -8.3940    3.1120    0.3010 h1        1 MOL      0.079274
    171 H80        -9.9530    3.9610    0.1550 h1        1 MOL      0.079274
    172 H81       -10.5100    1.7980   -0.7210 hn        1 MOL      0.238148
    173 Ca1         2.7270    0.2820   -1.0270 Ca        1 MOL      1.769999
    174 O23         0.6030    1.6250   -1.8670 oh        1 MOL     -0.906739
    175 H82        -0.2370    1.9840   -1.5700 ho        1 MOL      0.440456
    176 H83         0.7460    2.0320   -2.7300 ho        1 MOL      0.440456
    177 O24         0.6880   -1.6740   -1.3580 oh        1 MOL     -0.906739
    178 H84         1.2220   -2.1240   -2.0140 ho        1 MOL      0.440456
    179 H85        -0.2080   -1.7390   -1.6840 ho        1 MOL      0.440456
    180 O25         3.4720    2.1080   -3.0330 oh        1 MOL     -0.906739
    181 H86         4.1860    2.1150   -3.6620 ho        1 MOL      0.440456
    182 H87         2.9340    2.8710   -3.2680 ho        1 MOL      0.440456
@<TRIPOS>BOND
     1    1    2 1   
     2    1    4 1   
     3    1    5 1   
     4    1    6 1   
     5    2    3 2   
     6    2    7 1   
     7    7    8 1   
     8    7   15 1   
     9    8    9 1   
    10    8   11 1   
    11    8   16 1   
    12    9   10 2   
    13    9   19 1   
    14   11   12 1   
    15   11   17 1   
    16   11   18 1   
    17   12   13 1   
    18   12   14 1   
    19   19   20 1   
    20   19   28 1   
    21   20   21 1   
    22   20   23 1   
    23   20   29 1   
    24   21   22 2   
    25   21   41 1   
    26   23   24 1   
    27   23   30 1   
    28   23   31 1   
    29   24   25 1   
    30   24   32 1   
    31   24   33 1   
    32   25   26 1   
    33   25   34 1   
    34   25   35 1   
    35   26   27 1   
    36   26   36 1   
    37   26   37 1   
    38   27   38 1   
    39   27   39 1   
    40   27   40 1   
    41   41   42 1   
    42   41   49 1   
    43   42   43 1   
    44   42   45 1   
    45   42   50 1   
    46   43   44 2   
    47   43   53 1   
    48   45   46 1   
    49   45   51 1   
    50   45   52 1   
    51   46   47 1   
    52   46   48 1   
    53   53   54 1   
    54   53   57 1   
    55   54   55 1   
    56   54   58 1   
    57   54   59 1   
    58   55   56 2   
    59   55   60 1   
    60   60   61 1   
    61   60   68 1   
    62   61   62 1   
    63   61   64 1   
    64   61   69 1   
    65   62   63 2   
    66   62   74 1   
    67   64   65 1   
    68   64   70 1   
    69   64   71 1   
    70   65   66 1   
    71   65   67 2   
    72   66   72 1   
    73   66   73 1   
    74   74   75 1   
    75   74   78 1   
    76   75   76 1   
    77   75   79 1   
    78   75   80 1   
    79   76   77 2   
    80   76   81 1   
    81   81   82 1   
    82   81   93 1   
    83   82   83 1   
    84   82   85 1   
    85   82   94 1   
    86   83   84 2   
    87   83  102 1   
    88   85   86 1   
    89   85   95 1   
    90   85   96 1   
    91   86   87 ar  
    92   86   88 ar  
    93   87   89 ar  
    94   87   97 1   
    95   88   90 ar  
    96   88   98 1   
    97   89   91 ar  
    98   89   99 1   
    99   90   91 ar  
   100   90  100 1   
   101   91   92 1   
   102   92  101 1   
   103  102  103 1   
   104  102  110 1   
   105  103  104 1   
   106  103  106 1   
   107  103  111 1   
   108  104  105 2   
   109  104  121 1   
   110  106  107 1   
   111  106  108 1   
   112  106  112 1   
   113  107  109 1   
   114  107  113 1   
   115  107  114 1   
   116  108  115 1   
   117  108  116 1   
   118  108  117 1   
   119  109  118 1   
   120  109  119 1   
   121  109  120 1   
   122  121  122 1   
   123  121  127 1   
   124  122  123 1   
   125  122  125 1   
   126  122  128 1   
   127  123  124 2   
   128  123  132 1   
   129  125  126 1   
   130  125  129 1   
   131  125  130 1   
   132  126  131 1   
   133  132  133 1   
   134  132  137 1   
   135  133  134 1   
   136  133  136 1   
   137  133  138 1   
   138  134  135 2   
   139  134  142 1   
   140  136  139 1   
   141  136  140 1   
   142  136  141 1   
   143  142  143 1   
   144  142  147 1   
   145  143  144 1   
   146  143  146 1   
   147  143  148 1   
   148  144  145 2   
   149  144  152 1   
   150  146  149 1   
   151  146  150 1   
   152  146  151 1   
   153  152  153 1   
   154  152  161 1   
   155  153  154 1   
   156  153  156 1   
   157  153  162 1   
   158  154  155 2   
   159  154  167 1   
   160  156  157 1   
   161  156  163 1   
   162  156  164 1   
   163  157  158 1   
   164  157  165 1   
   165  157  166 1   
   166  158  159 1   
   167  158  160 1   
   168  167  168 1   
   169  167  172 1   
   170  168  169 1   
   171  168  170 1   
   172  168  171 1   
   173  174  175 1   
   174  174  176 1   
   175  177  178 1   
   176  177  179 1   
   177  180  181 1   
   178  180  182 1   
@<TRIPOS>SUBSTRUCTURE
     1 MOL         1 TEMP              0 ****  ****    0 ROOT
