@<TRIPOS>MOLECULE
MOL
  181   177     1     0     0
SMALL
resp


@<TRIPOS>ATOM
      1 C1          6.6980    1.2340    6.1550 c3        1 MOL     -0.372449
      2 C2          6.0340    0.8170    4.8240 c         1 MOL      0.711163
      3 O1          4.8260    0.9830    4.6980 o         1 MOL     -0.578038
      4 H1          7.2630    0.3930    6.5570 hc        1 MOL      0.088678
      5 H2          7.3720    2.0720    5.9780 hc        1 MOL      0.088678
      6 H3          5.9290    1.5290    6.8680 hc        1 MOL      0.088678
      7 N1          6.7160    0.3350    3.7820 n         1 MOL     -0.411271
      8 C3          8.1990    0.2260    3.6370 c3        1 MOL     -0.080290
      9 C4          8.6020   -1.1100    3.1020 c         1 MOL      0.412294
     10 O2          8.0440   -2.1810    3.4230 o         1 MOL     -0.463942
     11 C5          8.6640    1.3910    2.7820 c3        1 MOL     -0.147186
     12 C6          8.0710    1.4150    1.4160 c         1 MOL      0.687150
     13 O3          7.1820    2.2570    1.1380 o         1 MOL     -0.709002
     14 O4          8.4470    0.6440    0.5120 o         1 MOL     -0.709002
     15 H4          6.2010   -0.0500    3.0050 hn        1 MOL      0.273447
     16 H5          8.6850    0.2170    4.6080 h1        1 MOL      0.118057
     17 H6          9.7430    1.3070    2.6770 hc        1 MOL      0.026077
     18 H7          8.3010    2.2510    3.3390 hc        1 MOL      0.026077
     19 N2          9.6580   -1.1650    2.2630 n         1 MOL     -0.416241
     20 C7         10.2170   -2.3290    1.5790 c3        1 MOL      0.271500
     21 C8          9.1620   -3.0120    0.6630 c         1 MOL      0.371890
     22 O5          9.1540   -4.2670    0.5550 o         1 MOL     -0.528931
     23 C9         10.9450   -3.2370    2.5440 c3        1 MOL     -0.413793
     24 H8         10.1160   -0.2720    2.2150 hn        1 MOL      0.287198
     25 H9         11.0020   -1.9620    0.9200 h1        1 MOL      0.020537
     26 H10        11.7540   -2.7520    3.0950 hc        1 MOL      0.107947
     27 H11        10.2350   -3.7560    3.1810 hc        1 MOL      0.107947
     28 H12        11.4340   -4.0970    2.0720 hc        1 MOL      0.107947
     29 N3          8.3070   -2.1920    0.0680 n         1 MOL     -0.287306
     30 C10         7.1240   -2.6630   -0.6220 c3        1 MOL      0.100751
     31 C11         6.9370   -1.9950   -2.0230 c         1 MOL      0.445105
     32 O6          7.0730   -0.8030   -2.1860 o         1 MOL     -0.549750
     33 C12         5.9270   -2.6320    0.2940 c3        1 MOL     -0.006914
     34 C13         5.6170   -1.2710    0.8560 c         1 MOL      0.549447
     35 O7          4.9750   -1.3490    1.9230 o         1 MOL     -0.616102
     36 O8          5.7630   -0.2430    0.1420 o         1 MOL     -0.616102
     37 H13         8.3730   -1.2140    0.3000 hn        1 MOL      0.160581
     38 H14         7.1920   -3.7210   -0.8790 h1        1 MOL      0.009837
     39 H15         6.0490   -3.4340    1.0240 hc        1 MOL      0.027791
     40 H16         5.1130   -3.0120   -0.3260 hc        1 MOL      0.027791
     41 N4          6.3470   -2.7030   -2.9960 n         1 MOL     -0.363376
     42 C14         5.7110   -2.1280   -4.2120 c3        1 MOL     -0.420915
     43 C15         4.2400   -1.6640   -4.0500 c         1 MOL      0.631172
     44 O9          3.7810   -1.0170   -4.9590 o         1 MOL     -0.554118
     45 H17         6.1900   -3.6810   -2.7810 hn        1 MOL      0.282847
     46 H18         5.7830   -2.8710   -5.0050 h1        1 MOL      0.197515
     47 H19         6.3720   -1.3320   -4.5420 h1        1 MOL      0.197515
     48 N5          3.5890   -1.9650   -2.9640 n         1 MOL     -0.431131
     49 C16         2.4240   -1.3130   -2.3470 c3        1 MOL     -0.003069
     50 C17         2.6550    0.2310   -2.1750 c         1 MOL      0.548553
     51 O10         3.7820    0.7240   -2.2250 o         1 MOL     -0.505299
     52 C18         2.0760   -1.8820   -1.0070 c3        1 MOL     -0.262081
     53 C19         1.6180   -3.3490   -0.9610 c         1 MOL      0.668507
     54 N6          1.4100   -3.9270    0.1690 n         1 MOL     -0.777465
     55 O11         1.3300   -3.9140   -2.0370 o         1 MOL     -0.558977
     56 H20         4.1450   -2.5840   -2.3830 hn        1 MOL      0.287929
     57 H21         1.5790   -1.4000   -3.0380 h1        1 MOL      0.117712
     58 H22         1.2310   -1.3980   -0.5240 hc        1 MOL      0.084034
     59 H23         2.9530   -1.7390   -0.3710 hc        1 MOL      0.084034
     60 H24         1.5030   -3.4230    1.0360 hn        1 MOL      0.376918
     61 H25         1.3330   -4.9350    0.1840 hn        1 MOL      0.376918
     62 N7          1.5670    0.9370   -1.9040 n         1 MOL     -0.459721
     63 C20         1.5280    2.4060   -1.8250 c3        1 MOL      0.033308
     64 C21         0.7950    2.9260   -3.0650 c         1 MOL      0.573255
     65 O12         1.0500    2.4500   -4.1570 o         1 MOL     -0.519216
     66 H26         0.6880    0.4460   -1.8060 hn        1 MOL      0.320881
     67 H27         2.4760    2.8810   -1.5510 h1        1 MOL      0.068548
     68 H28         0.9700    2.5310   -0.9060 h1        1 MOL      0.068548
     69 N8         -0.0240    3.9550   -2.8970 n         1 MOL     -0.617632
     70 C22        -0.5030    4.4560   -1.5640 c3        1 MOL      0.007187
     71 C23        -1.6450    3.7120   -0.9850 c         1 MOL      0.746249
     72 O13        -2.7160    3.8000   -1.5550 o         1 MOL     -0.594494
     73 C24        -0.8280    5.9260   -1.4890 c3        1 MOL      0.458027
     74 C25        -1.1610    6.3990   -0.0440 c3        1 MOL     -0.273383
     75 O14         0.2180    6.7700   -1.9150 oh        1 MOL     -0.680825
     76 H29        -0.3770    4.3940   -3.7370 hn        1 MOL      0.347890
     77 H30         0.2980    4.3170   -0.8450 h1        1 MOL      0.024590
     78 H31        -1.6530    6.1310   -2.1660 h1        1 MOL     -0.036473
     79 H32        -0.0820    7.2900   -2.6640 ho        1 MOL      0.399004
     80 H33        -0.4490    5.9600    0.6570 hc        1 MOL      0.076930
     81 H34        -1.0840    7.4900   -0.0610 hc        1 MOL      0.076930
     82 H35        -2.1610    6.1130    0.2770 hc        1 MOL      0.076930
     83 N9         -1.5760    3.0260    0.1130 n         1 MOL     -0.538526
     84 C26        -2.6710    2.5270    0.8920 c3        1 MOL      0.000744
     85 C27        -3.2860    3.6870    1.7230 c         1 MOL      0.275325
     86 O15        -2.5730    4.2270    2.5980 o         1 MOL     -0.527879
     87 C28        -2.2350    1.3050    1.7710 c3        1 MOL      0.261364
     88 C29        -1.8420    0.1900    0.8010 c3        1 MOL     -0.078958
     89 C30        -3.3110    1.0420    2.8750 c3        1 MOL     -0.309478
     90 C31        -1.2640   -1.0260    1.5410 c3        1 MOL     -0.285353
     91 H36        -0.7130    2.8320    0.6060 hn        1 MOL      0.250741
     92 H37        -3.3620    2.1290    0.1510 h1        1 MOL      0.094097
     93 H38        -1.3120    1.5520    2.2880 hc        1 MOL     -0.010575
     94 H39        -1.1780    0.4120   -0.0420 hc        1 MOL      0.033455
     95 H40        -2.8020   -0.0540    0.3510 hc        1 MOL      0.033455
     96 H41        -3.2230    1.6880    3.7510 hc        1 MOL      0.098525
     97 H42        -4.2950    0.9470    2.3990 hc        1 MOL      0.098525
     98 H43        -3.1930    0.0340    3.2740 hc        1 MOL      0.098525
     99 H44        -1.9770   -1.3530    2.2930 hc        1 MOL      0.059919
    100 H45        -0.9890   -1.8050    0.8300 hc        1 MOL      0.059919
    101 H46        -0.4000   -0.6830    2.1000 hc        1 MOL      0.059919
    102 N10        -4.5650    4.1320    1.5000 n         1 MOL     -0.197080
    103 C32        -5.5370    3.6520    0.4800 c3        1 MOL     -0.052252
    104 C33        -6.4950    2.5750    1.0370 c         1 MOL      0.479153
    105 O16        -6.4490    2.1410    2.1900 o         1 MOL     -0.530940
    106 C34        -6.2900    4.8740   -0.1630 c3        1 MOL     -0.119949
    107 C35        -6.8610    5.8260    0.8440 c         1 MOL      0.776194
    108 O17        -6.5570    6.9640    0.8660 o         1 MOL     -0.725720
    109 O18        -7.6810    5.3430    1.6800 o         1 MOL     -0.725720
    110 H47        -4.8640    4.8090    2.1920 hn        1 MOL      0.290652
    111 H48        -5.0170    3.1290   -0.3200 h1        1 MOL      0.115663
    112 H49        -7.1710    4.4700   -0.6620 hc        1 MOL     -0.009660
    113 H50        -5.5850    5.4330   -0.7830 hc        1 MOL     -0.009660
    114 N11        -7.2640    2.0760    0.1160 n         1 MOL     -0.580855
    115 C36        -7.9700    0.8290    0.2490 c3        1 MOL      0.586285
    116 C37        -8.1310   -0.0170   -1.0780 c         1 MOL      0.218943
    117 O19        -8.3650    0.6780   -2.0460 o         1 MOL     -0.546425
    118 C38        -9.3750    1.0340    0.9370 c3        1 MOL     -0.320038
    119 C39        -9.8910   -0.2730    1.4790 ca        1 MOL      0.095507
    120 C40       -10.8560   -1.0710    0.8260 ca        1 MOL     -0.174987
    121 C41        -9.3700   -0.7420    2.7230 ca        1 MOL     -0.174987
    122 C42       -11.3400   -2.2540    1.3600 ca        1 MOL     -0.111479
    123 C43        -9.7520   -2.0630    3.1980 ca        1 MOL     -0.111479
    124 C44       -10.8180   -2.6900    2.5930 ca        1 MOL     -0.115759
    125 H51        -7.2490    2.3990   -0.8410 hn        1 MOL      0.298853
    126 H52        -7.3600    0.2760    0.9720 h1        1 MOL     -0.037788
    127 H53       -10.0100    1.3310    0.1050 hc        1 MOL      0.102708
    128 H54        -9.2810    1.8030    1.7030 hc        1 MOL      0.102708
    129 H55       -11.3520   -0.7110   -0.0570 ha        1 MOL      0.135056
    130 H56        -8.5790   -0.1510    3.1620 ha        1 MOL      0.135056
    131 H57       -12.2830   -2.7180    1.1000 ha        1 MOL      0.098475
    132 H58        -9.4410   -2.4400    4.1610 ha        1 MOL      0.098475
    133 H59       -11.2600   -3.5420    3.1050 ha        1 MOL      0.087471
    134 N12        -8.0910   -1.3210   -1.2290 n         1 MOL      0.229447
    135 C45        -7.7020   -2.2920   -0.2760 c3        1 MOL     -0.343244
    136 C46        -6.1600   -2.3170    0.0240 c         1 MOL      0.369859
    137 O20        -5.5650   -1.2480    0.2680 o         1 MOL     -0.512740
    138 C47        -8.4420   -3.5430   -0.7870 c3        1 MOL     -0.022931
    139 C48        -9.3630   -3.2210   -1.9240 c3        1 MOL     -0.182549
    140 C49        -8.5400   -2.0250   -2.4090 c3        1 MOL     -0.148629
    141 H60        -8.2600   -1.9670    0.6050 h1        1 MOL      0.131291
    142 H61        -7.7430   -4.2980   -1.1280 hc        1 MOL      0.050692
    143 H62        -9.0590   -4.0160   -0.0180 hc        1 MOL      0.050692
    144 H63        -9.3470   -4.0680   -2.6070 hc        1 MOL      0.070050
    145 H64       -10.3640   -2.9830   -1.5640 hc        1 MOL      0.070050
    146 H65        -7.7470   -2.3590   -3.0750 h1        1 MOL      0.092289
    147 H66        -9.2370   -1.3480   -2.9160 h1        1 MOL      0.092289
    148 N13        -5.4920   -3.4920    0.0130 n         1 MOL     -0.038943
    149 C50        -4.0950   -3.7590    0.3110 c3        1 MOL      0.061499
    150 C51        -3.7720   -5.1360    1.0340 c         1 MOL      0.442069
    151 O21        -2.8080   -5.8110    0.7000 o         1 MOL     -0.516317
    152 C52        -3.2990   -3.3720   -0.9080 c3        1 MOL      0.057047
    153 C53        -3.3190   -4.3550   -2.1060 c3        1 MOL     -0.034824
    154 C54        -4.7480   -4.7220   -2.5300 c         1 MOL      0.653776
    155 O22        -5.4680   -3.8640   -3.1400 o         1 MOL     -0.705831
    156 O23        -5.2100   -5.8370   -2.1770 o         1 MOL     -0.705831
    157 H67        -6.0940   -4.2510   -0.2570 hn        1 MOL      0.122941
    158 H68        -3.8970   -2.9800    1.0500 h1        1 MOL      0.055929
    159 H69        -2.2570   -3.3600   -0.5900 hc        1 MOL      0.006983
    160 H70        -3.5280   -2.3470   -1.1910 hc        1 MOL      0.006983
    161 H71        -2.7000   -5.2380   -1.9290 hc        1 MOL     -0.027181
    162 H72        -2.8840   -3.8570   -2.9790 hc        1 MOL     -0.027181
    163 N14        -4.5150   -5.5840    2.0490 n         1 MOL     -0.409016
    164 C55        -5.3750   -4.7450    3.0540 c3        1 MOL     -0.141073
    165 H73        -4.8410   -4.6530    4.0000 h1        1 MOL      0.080333
    166 H74        -5.5520   -3.7520    2.6410 h1        1 MOL      0.080333
    167 H75        -6.3290   -5.2450    3.2220 h1        1 MOL      0.080333
    168 H76        -4.3880   -6.5570    2.2590 hn        1 MOL      0.292557
    169 Ca1         6.2580    1.7420   -1.2370 Ca        1 MOL      1.799309
    170 O24         4.9560    3.4080   -2.9030 oh        1 MOL     -0.865404
    171 H77         5.2280    3.9780   -3.6350 ho        1 MOL      0.418372
    172 H78         4.0240    3.5960   -2.7920 ho        1 MOL      0.418372
    173 O25         7.4070    2.1430   -3.5170 oh        1 MOL     -0.865404
    174 H79         7.9020    2.9510   -3.6280 ho        1 MOL      0.418372
    175 H80         7.2720    1.8130   -4.4070 ho        1 MOL      0.418372
    176 O26         4.2080    2.4590    0.4160 oh        1 MOL     -0.865404
    177 H81         4.5080    3.1640    0.9870 ho        1 MOL      0.418372
    178 H82         3.5590    1.9880    0.9300 ho        1 MOL      0.418372
    179 O27         7.9190    3.9560   -1.1600 oh        1 MOL     -0.865404
    180 H83         8.4070    4.3760   -0.4520 ho        1 MOL      0.418372
    181 H84         8.3830    4.1980   -1.9590 ho        1 MOL      0.418372
@<TRIPOS>BOND
     1    1    2 1   
     2    1    4 1   
     3    1    5 1   
     4    1    6 1   
     5    2    3 2   
     6    2    7 1   
     7    7    8 1   
     8    7   15 1   
     9    8    9 1   
    10    8   11 1   
    11    8   16 1   
    12    9   10 2   
    13    9   19 1   
    14   11   12 1   
    15   11   17 1   
    16   11   18 1   
    17   12   13 1   
    18   12   14 1   
    19   19   20 1   
    20   19   24 1   
    21   20   21 1   
    22   20   23 1   
    23   20   25 1   
    24   21   22 2   
    25   21   29 1   
    26   23   26 1   
    27   23   27 1   
    28   23   28 1   
    29   29   30 1   
    30   29   37 1   
    31   30   31 1   
    32   30   33 1   
    33   30   38 1   
    34   31   32 2   
    35   31   41 1   
    36   33   34 1   
    37   33   39 1   
    38   33   40 1   
    39   34   35 1   
    40   34   36 1   
    41   41   42 1   
    42   41   45 1   
    43   42   43 1   
    44   42   46 1   
    45   42   47 1   
    46   43   44 2   
    47   43   48 1   
    48   48   49 1   
    49   48   56 1   
    50   49   50 1   
    51   49   52 1   
    52   49   57 1   
    53   50   51 2   
    54   50   62 1   
    55   52   53 1   
    56   52   58 1   
    57   52   59 1   
    58   53   54 1   
    59   53   55 2   
    60   54   60 1   
    61   54   61 1   
    62   62   63 1   
    63   62   66 1   
    64   63   64 1   
    65   63   67 1   
    66   63   68 1   
    67   64   65 2   
    68   64   69 1   
    69   69   70 1   
    70   69   76 1   
    71   70   71 1   
    72   70   73 1   
    73   70   77 1   
    74   71   72 2   
    75   71   83 1   
    76   73   74 1   
    77   73   75 1   
    78   73   78 1   
    79   74   80 1   
    80   74   81 1   
    81   74   82 1   
    82   75   79 1   
    83   83   84 1   
    84   83   91 1   
    85   84   85 1   
    86   84   87 1   
    87   84   92 1   
    88   85   86 2   
    89   85  102 1   
    90   87   88 1   
    91   87   89 1   
    92   87   93 1   
    93   88   90 1   
    94   88   94 1   
    95   88   95 1   
    96   89   96 1   
    97   89   97 1   
    98   89   98 1   
    99   90   99 1   
   100   90  100 1   
   101   90  101 1   
   102  102  103 1   
   103  102  110 1   
   104  103  104 1   
   105  103  106 1   
   106  103  111 1   
   107  104  105 2   
   108  104  114 1   
   109  106  107 1   
   110  106  112 1   
   111  106  113 1   
   112  107  108 1   
   113  107  109 1   
   114  114  115 1   
   115  114  125 1   
   116  115  116 1   
   117  115  118 1   
   118  115  126 1   
   119  116  117 2   
   120  116  134 1   
   121  118  119 1   
   122  118  127 1   
   123  118  128 1   
   124  119  120 ar  
   125  119  121 ar  
   126  120  122 ar  
   127  120  129 1   
   128  121  123 ar  
   129  121  130 1   
   130  122  124 ar  
   131  122  131 1   
   132  123  124 ar  
   133  123  132 1   
   134  124  133 1   
   135  134  135 1   
   136  134  140 1   
   137  135  136 1   
   138  135  138 1   
   139  135  141 1   
   140  136  137 2   
   141  136  148 1   
   142  138  139 1   
   143  138  142 1   
   144  138  143 1   
   145  139  140 1   
   146  139  144 1   
   147  139  145 1   
   148  140  146 1   
   149  140  147 1   
   150  148  149 1   
   151  148  157 1   
   152  149  150 1   
   153  149  152 1   
   154  149  158 1   
   155  150  151 2   
   156  150  163 1   
   157  152  153 1   
   158  152  159 1   
   159  152  160 1   
   160  153  154 1   
   161  153  161 1   
   162  153  162 1   
   163  154  155 1   
   164  154  156 1   
   165  163  164 1   
   166  163  168 1   
   167  164  165 1   
   168  164  166 1   
   169  164  167 1   
   170  170  171 1   
   171  170  172 1   
   172  173  174 1   
   173  173  175 1   
   174  176  177 1   
   175  176  178 1   
   176  179  180 1   
   177  179  181 1   
@<TRIPOS>SUBSTRUCTURE
     1 MOL         1 TEMP              0 ****  ****    0 ROOT
