@<TRIPOS>MOLECULE
MOL
  188   182     1     0     0
SMALL
resp


@<TRIPOS>ATOM
      1 C1         -6.4910    3.3990   -2.5240 c3        1 MOL     -0.362529
      2 C2         -7.2680    2.4750   -1.5530 c         1 MOL      0.561488
      3 O1         -6.6350    1.6950   -0.9000 o         1 MOL     -0.435024
      4 H1         -5.4630    3.0490   -2.6140 hc        1 MOL      0.096646
      5 H2         -6.9680    3.3800   -3.5040 hc        1 MOL      0.096646
      6 H3         -6.4950    4.4190   -2.1380 hc        1 MOL      0.096646
      7 N1         -8.6220    2.4930   -1.4950 n         1 MOL     -0.544270
      8 C3         -9.4500    1.8850   -0.4880 c3        1 MOL      0.206407
      9 C4         -9.1710    0.3780   -0.0500 c         1 MOL      0.284378
     10 O2         -9.1090    0.0110    1.1370 o         1 MOL     -0.442136
     11 C5         -9.4400    2.8430    0.7160 c3        1 MOL     -0.325772
     12 C6        -10.5830    2.6250    1.7110 c         1 MOL      0.684195
     13 O3        -11.6360    2.0600    1.3200 o         1 MOL     -0.690254
     14 O4        -10.5850    3.0990    2.8850 o         1 MOL     -0.690254
     15 H4         -9.0710    3.0620   -2.1980 hn        1 MOL      0.322894
     16 H5        -10.4000    1.8950   -1.0030 h1        1 MOL      0.012756
     17 H6         -9.3400    3.9080    0.5190 hc        1 MOL      0.111313
     18 H7         -8.4900    2.6940    1.2230 hc        1 MOL      0.111313
     19 N2         -8.9710   -0.4590   -1.0370 n         1 MOL     -0.272666
     20 C7         -8.5980   -1.8930   -0.9210 c3        1 MOL      0.077273
     21 C8         -7.1260   -2.3100   -0.9990 c         1 MOL      0.445775
     22 O5         -6.8750   -3.4850   -1.1830 o         1 MOL     -0.556519
     23 C9         -9.4600   -2.7650   -1.8380 c3        1 MOL     -0.037365
     24 C10       -10.9310   -2.7470   -1.3830 c3        1 MOL     -0.068345
     25 C11       -11.0830   -3.8960   -0.4050 c3        1 MOL      0.136082
     26 C12       -12.4960   -3.9230    0.1310 c3        1 MOL     -0.113549
     27 N3        -12.7010   -2.8570    1.1690 n4        1 MOL     -0.225742
     28 H8         -9.0640   -0.1980   -2.0110 hn        1 MOL      0.216989
     29 H9         -8.8320   -2.1960    0.1000 h1        1 MOL      0.072130
     30 H10        -9.0850   -3.7820   -1.7190 hc        1 MOL      0.032506
     31 H11        -9.3920   -2.4230   -2.8610 hc        1 MOL      0.032506
     32 H12       -11.4350   -2.8700   -2.3410 hc        1 MOL      0.022262
     33 H13       -11.1920   -1.7970   -0.8990 hc        1 MOL      0.022262
     34 H14       -10.3930   -3.9000    0.4360 hc        1 MOL      0.021997
     35 H15       -10.9110   -4.8680   -0.8710 hc        1 MOL      0.021997
     36 H16       -12.6450   -4.9000    0.5940 hx        1 MOL      0.091982
     37 H17       -13.1170   -3.8880   -0.7580 hx        1 MOL      0.091982
     38 H18       -13.0950   -2.0520    0.7110 hn        1 MOL      0.284997
     39 H19       -13.3800   -3.1470    1.8710 hn        1 MOL      0.284997
     40 H20       -11.8860   -2.5600    1.6850 hn        1 MOL      0.284997
     41 N4         -6.2380   -1.3540   -0.9000 n         1 MOL     -0.315562
     42 C13        -4.8500   -1.6110   -0.9760 c3        1 MOL      0.206772
     43 C14        -4.2580   -2.4050    0.1910 c         1 MOL      0.584187
     44 O6         -4.4740   -2.0120    1.3390 o         1 MOL     -0.541224
     45 C15        -4.0310   -0.2970   -1.2110 c3        1 MOL     -0.367118
     46 C16        -2.5380   -0.5920   -1.3890 c         1 MOL      0.796419
     47 O7         -2.0440   -0.7700   -2.5450 o         1 MOL     -0.779159
     48 O8         -1.8250   -0.7500   -0.3800 o         1 MOL     -0.779159
     49 H21        -6.4840   -0.3820   -0.9890 hn        1 MOL      0.200481
     50 H22        -4.7470   -2.3240   -1.8020 h1        1 MOL     -0.028574
     51 H23        -4.1210    0.3580   -0.3470 hc        1 MOL      0.094903
     52 H24        -4.4910    0.1210   -2.1080 hc        1 MOL      0.094903
     53 N5         -3.7110   -3.5420   -0.0940 n         1 MOL     -0.246190
     54 C17        -3.3790   -4.5830    0.9260 c3        1 MOL     -0.264084
     55 C18        -2.2370   -4.2180    1.9630 c         1 MOL      0.610079
     56 O9         -2.2040   -4.9590    2.9330 o         1 MOL     -0.520283
     57 H25        -3.6100   -3.7250   -1.0840 hn        1 MOL      0.243169
     58 H26        -3.1420   -5.5740    0.5330 h1        1 MOL      0.137971
     59 H27        -4.2340   -4.7220    1.5900 h1        1 MOL      0.137971
     60 N6         -1.4600   -3.1440    1.6830 n         1 MOL     -0.348229
     61 C19        -0.7940   -2.4240    2.8050 c3        1 MOL     -0.043551
     62 C20        -1.0990   -0.9370    3.0080 c         1 MOL      0.545460
     63 O10        -0.4550   -0.2640    3.7870 o         1 MOL     -0.568474
     64 C21         0.7560   -2.6790    2.7630 c3        1 MOL     -0.297649
     65 C22         1.5230   -2.0540    1.5860 c         1 MOL      0.639022
     66 N7          2.7670   -2.4370    1.4090 n         1 MOL     -0.800752
     67 O11         0.9890   -1.2540    0.8460 o         1 MOL     -0.403541
     68 H28        -1.6640   -2.5840    0.8660 hn        1 MOL      0.025388
     69 H29        -1.1270   -2.8000    3.7740 h1        1 MOL      0.143955
     70 H30         0.9820   -3.7480    2.6810 hc        1 MOL      0.117451
     71 H31         1.2710   -2.3330    3.6670 hc        1 MOL      0.117451
     72 H32         3.2950   -2.8600    2.1650 hn        1 MOL      0.358092
     73 H33         3.3940   -2.1630    0.6730 hn        1 MOL      0.358092
     74 N8         -2.2270   -0.4510    2.4350 n         1 MOL     -0.200180
     75 C23        -2.8200    0.8350    2.8700 c3        1 MOL     -0.207063
     76 C24        -2.2420    2.0590    2.0970 c         1 MOL      0.515819
     77 O12        -2.5960    3.1930    2.4420 o         1 MOL     -0.536864
     78 H34        -2.8450   -1.0480    1.9040 hn        1 MOL      0.208605
     79 H35        -2.7610    0.9050    3.9570 h1        1 MOL      0.136543
     80 H36        -3.8870    0.7220    2.6510 h1        1 MOL      0.136543
     81 N9         -1.5710    1.8470    0.9650 n         1 MOL     -0.268045
     82 C25        -0.8030    2.9080    0.2930 c3        1 MOL      0.104814
     83 C26         0.5380    2.3330   -0.2760 c         1 MOL      0.352168
     84 O13         0.6460    1.1320   -0.5340 o         1 MOL     -0.538707
     85 C27        -1.6870    3.5750   -0.7420 c3        1 MOL     -0.220173
     86 C28        -0.9950    4.3890   -1.8000 ca        1 MOL     -0.036291
     87 C29        -0.5660    5.7070   -1.4680 ca        1 MOL     -0.063170
     88 C30        -0.6550    3.8150   -2.9630 ca        1 MOL     -0.063170
     89 C31         0.2440    6.4380   -2.3850 ca        1 MOL     -0.384518
     90 C32         0.2150    4.5160   -3.9140 ca        1 MOL     -0.384518
     91 C33         0.7180    5.8220   -3.5510 ca        1 MOL      0.462344
     92 O14         1.6000    6.4190   -4.3510 oh        1 MOL     -0.437282
     93 H37        -1.3170    0.8860    0.7430 hn        1 MOL      0.200625
     94 H38        -0.4200    3.6760    0.9750 h1        1 MOL      0.021196
     95 H39        -2.4100    4.1000   -0.1180 hc        1 MOL      0.122361
     96 H40        -2.2410    2.8040   -1.2790 hc        1 MOL      0.122361
     97 H41        -0.9060    6.0970   -0.5210 ha        1 MOL      0.127847
     98 H42        -0.9020    2.7670   -3.0780 ha        1 MOL      0.127847
     99 H43         0.5950    7.4310   -2.1220 ha        1 MOL      0.180616
    100 H44         0.5970    3.9260   -4.7320 ha        1 MOL      0.180616
    101 H45         1.7440    5.7530   -5.0330 ho        1 MOL      0.324288
    102 N10         1.6280    3.1550   -0.1670 n         1 MOL     -0.106303
    103 C34         2.9920    2.5780   -0.1710 c3        1 MOL     -0.198223
    104 C35         3.3520    1.6970    1.0310 c         1 MOL      0.119659
    105 O15         4.0450    0.6770    0.8420 o         1 MOL     -0.400909
    106 C36         4.0570    3.7170   -0.1490 c3        1 MOL      0.094560
    107 C37         3.7690    4.7880   -1.1440 c3        1 MOL     -0.059614
    108 C38         5.4610    3.1520   -0.3480 c3        1 MOL     -0.286408
    109 C39         3.6640    4.2500   -2.6020 c3        1 MOL     -0.102066
    110 H46         1.5100    4.0780    0.2280 hn        1 MOL      0.221144
    111 H47         3.2050    1.9760   -1.0570 h1        1 MOL      0.172312
    112 H48         4.0190    4.1620    0.8450 hc        1 MOL     -0.015419
    113 H49         4.6120    5.4730   -1.0200 hc        1 MOL      0.044604
    114 H50         2.8190    5.2790   -0.9230 hc        1 MOL      0.044604
    115 H51         6.2500    3.8970   -0.4930 hc        1 MOL      0.096816
    116 H52         5.7860    2.5380    0.4910 hc        1 MOL      0.096816
    117 H53         5.4900    2.5530   -1.2640 hc        1 MOL      0.096816
    118 H54         4.6150    3.8200   -2.8900 hc        1 MOL      0.018103
    119 H55         2.8520    3.5200   -2.6340 hc        1 MOL      0.018103
    120 H56         3.4160    5.0890   -3.2640 hc        1 MOL      0.018103
    121 N11         2.8610    2.0410    2.2350 n         1 MOL     -0.079847
    122 C40         3.3430    1.2300    3.3990 c3        1 MOL     -0.213087
    123 C41         4.8440    1.2110    3.5870 c         1 MOL      0.631349
    124 O16         5.3330    0.2200    4.1340 o         1 MOL     -0.502979
    125 C42         2.7240    1.6410    4.7320 c3        1 MOL      0.194895
    126 O17         3.0420    2.9740    4.9290 oh        1 MOL     -0.643345
    127 H57         2.0670    2.6580    2.3520 hn        1 MOL      0.270816
    128 H58         2.9740    0.2050    3.2830 h1        1 MOL      0.107297
    129 H59         3.1380    0.9710    5.4780 h1        1 MOL      0.047421
    130 H60         1.6420    1.5710    4.7980 h1        1 MOL      0.047421
    131 H61         2.9620    3.0930    5.8710 ho        1 MOL      0.427000
    132 N12         5.5750    2.2260    3.1670 n         1 MOL     -0.473057
    133 C43         7.0580    2.1560    3.0490 c3        1 MOL      0.276135
    134 C44         7.7420    0.8500    2.6990 c         1 MOL      0.471450
    135 O18         8.7460    0.4820    3.3070 o         1 MOL     -0.514446
    136 C45         7.6120    2.6800    4.4090 c3        1 MOL     -0.426943
    137 H62         5.1760    3.0960    2.8390 hn        1 MOL      0.296555
    138 H63         7.3730    2.8640    2.2750 h1        1 MOL      0.035031
    139 H64         7.1090    3.5750    4.7910 hc        1 MOL      0.115433
    140 H65         7.5900    1.8960    5.1700 hc        1 MOL      0.115433
    141 H66         8.6500    2.9690    4.2220 hc        1 MOL      0.115433
    142 N13         7.2090    0.0870    1.7340 n         1 MOL     -0.491042
    143 C46         7.7560   -1.2580    1.3440 c3        1 MOL      0.416673
    144 C47         8.3950   -1.3000   -0.0750 c         1 MOL      0.295841
    145 O19         7.8420   -0.7130   -0.9950 o         1 MOL     -0.417271
    146 C48         6.5940   -2.3580    1.4760 c3        1 MOL     -0.171286
    147 H67         6.3130    0.3570    1.3530 hn        1 MOL      0.179795
    148 H68         8.5860   -1.5100    1.9950 h1        1 MOL     -0.017234
    149 H69         6.9720   -3.3600    1.2470 hc        1 MOL      0.040904
    150 H70         6.2580   -2.2440    2.5080 hc        1 MOL      0.040904
    151 H71         5.7490   -2.1010    0.8320 hc        1 MOL      0.040904
    152 N14         9.6050   -1.9160   -0.1540 n         1 MOL     -0.528650
    153 C49        10.2090   -2.2050   -1.4700 c3        1 MOL      0.010757
    154 C50        10.3150   -0.8850   -2.2980 c         1 MOL      0.389867
    155 O20         9.9920   -0.8190   -3.4510 o         1 MOL     -0.471696
    156 C51         9.4190   -3.3220   -2.1660 c3        1 MOL      0.199041
    157 C52         9.3880   -4.6160   -1.4220 c3        1 MOL     -0.064237
    158 C53         8.5990   -5.7570   -1.9820 c         1 MOL      0.603442
    159 O21         9.1560   -6.6920   -2.6150 o         1 MOL     -0.656300
    160 O22         7.3450   -5.7430   -2.0840 o         1 MOL     -0.656300
    161 H72         9.8930   -2.4350    0.6530 hn        1 MOL      0.333605
    162 H73        11.2150   -2.5870   -1.2990 h1        1 MOL      0.062975
    163 H74         9.9000   -3.5040   -3.1340 hc        1 MOL     -0.019002
    164 H75         8.4050   -2.9560   -2.2750 hc        1 MOL     -0.019002
    165 H76         9.0980   -4.5350   -0.3710 hc        1 MOL     -0.021284
    166 H77        10.4050   -5.0070   -1.4100 hc        1 MOL     -0.021284
    167 N15        10.8010    0.2090   -1.6450 n         1 MOL     -0.191033
    168 C54        10.9210    1.6080   -2.1310 c3        1 MOL     -0.298075
    169 H78         9.9590    1.9400   -2.5210 h1        1 MOL      0.122612
    170 H79        11.2220    2.2550   -1.3070 h1        1 MOL      0.122612
    171 H80        11.6700    1.6550   -2.9230 h1        1 MOL      0.122612
    172 H81        11.3210   -0.0070   -0.8130 hn        1 MOL      0.207466
    173 Ca1         0.4710   -1.1840   -1.7710 Ca        1 MOL      1.789871
    174 O23         0.8420    0.4790   -3.7930 oh        1 MOL     -0.851966
    175 H82         1.7070    0.5290   -4.1890 ho        1 MOL      0.409916
    176 H83         0.2520    0.8940   -4.4240 ho        1 MOL      0.409916
    177 O24         1.9660   -3.2970   -1.5140 oh        1 MOL     -0.851966
    178 H84         1.8210   -4.0770   -2.0440 ho        1 MOL      0.409916
    179 H85         2.7630   -3.4790   -1.0160 ho        1 MOL      0.409916
    180 O25        -0.1890   -2.4090   -4.4620 oh        1 MOL     -0.851966
    181 H86        -0.8540   -1.7660   -4.6960 ho        1 MOL      0.409916
    182 H87        -0.5280   -3.2340   -4.8060 ho        1 MOL      0.409916
    183 O26        -0.9020   -3.4160   -1.1990 oh        1 MOL     -0.851966
    184 H88        -1.1610   -3.9750   -1.9340 ho        1 MOL      0.409916
    185 H89        -0.7130   -4.0310   -0.4910 ho        1 MOL      0.409916
    186 O27         3.2350   -0.5140   -1.4290 oh        1 MOL     -0.851966
    187 H90         4.0110   -0.6680   -1.9740 ho        1 MOL      0.409916
    188 H91         3.5800   -0.0690   -0.6460 ho        1 MOL      0.409916
@<TRIPOS>BOND
     1    1    2 1   
     2    1    4 1   
     3    1    5 1   
     4    1    6 1   
     5    2    3 2   
     6    2    7 1   
     7    7    8 1   
     8    7   15 1   
     9    8    9 1   
    10    8   11 1   
    11    8   16 1   
    12    9   10 2   
    13    9   19 1   
    14   11   12 1   
    15   11   17 1   
    16   11   18 1   
    17   12   13 1   
    18   12   14 1   
    19   19   20 1   
    20   19   28 1   
    21   20   21 1   
    22   20   23 1   
    23   20   29 1   
    24   21   22 2   
    25   21   41 1   
    26   23   24 1   
    27   23   30 1   
    28   23   31 1   
    29   24   25 1   
    30   24   32 1   
    31   24   33 1   
    32   25   26 1   
    33   25   34 1   
    34   25   35 1   
    35   26   27 1   
    36   26   36 1   
    37   26   37 1   
    38   27   38 1   
    39   27   39 1   
    40   27   40 1   
    41   41   42 1   
    42   41   49 1   
    43   42   43 1   
    44   42   45 1   
    45   42   50 1   
    46   43   44 2   
    47   43   53 1   
    48   45   46 1   
    49   45   51 1   
    50   45   52 1   
    51   46   47 1   
    52   46   48 1   
    53   53   54 1   
    54   53   57 1   
    55   54   55 1   
    56   54   58 1   
    57   54   59 1   
    58   55   56 2   
    59   55   60 1   
    60   60   61 1   
    61   60   68 1   
    62   61   62 1   
    63   61   64 1   
    64   61   69 1   
    65   62   63 2   
    66   62   74 1   
    67   64   65 1   
    68   64   70 1   
    69   64   71 1   
    70   65   66 1   
    71   65   67 2   
    72   66   72 1   
    73   66   73 1   
    74   74   75 1   
    75   74   78 1   
    76   75   76 1   
    77   75   79 1   
    78   75   80 1   
    79   76   77 2   
    80   76   81 1   
    81   81   82 1   
    82   81   93 1   
    83   82   83 1   
    84   82   85 1   
    85   82   94 1   
    86   83   84 2   
    87   83  102 1   
    88   85   86 1   
    89   85   95 1   
    90   85   96 1   
    91   86   87 ar  
    92   86   88 ar  
    93   87   89 ar  
    94   87   97 1   
    95   88   90 ar  
    96   88   98 1   
    97   89   91 ar  
    98   89   99 1   
    99   90   91 ar  
   100   90  100 1   
   101   91   92 1   
   102   92  101 1   
   103  102  103 1   
   104  102  110 1   
   105  103  104 1   
   106  103  106 1   
   107  103  111 1   
   108  104  105 2   
   109  104  121 1   
   110  106  107 1   
   111  106  108 1   
   112  106  112 1   
   113  107  109 1   
   114  107  113 1   
   115  107  114 1   
   116  108  115 1   
   117  108  116 1   
   118  108  117 1   
   119  109  118 1   
   120  109  119 1   
   121  109  120 1   
   122  121  122 1   
   123  121  127 1   
   124  122  123 1   
   125  122  125 1   
   126  122  128 1   
   127  123  124 2   
   128  123  132 1   
   129  125  126 1   
   130  125  129 1   
   131  125  130 1   
   132  126  131 1   
   133  132  133 1   
   134  132  137 1   
   135  133  134 1   
   136  133  136 1   
   137  133  138 1   
   138  134  135 2   
   139  134  142 1   
   140  136  139 1   
   141  136  140 1   
   142  136  141 1   
   143  142  143 1   
   144  142  147 1   
   145  143  144 1   
   146  143  146 1   
   147  143  148 1   
   148  144  145 2   
   149  144  152 1   
   150  146  149 1   
   151  146  150 1   
   152  146  151 1   
   153  152  153 1   
   154  152  161 1   
   155  153  154 1   
   156  153  156 1   
   157  153  162 1   
   158  154  155 2   
   159  154  167 1   
   160  156  157 1   
   161  156  163 1   
   162  156  164 1   
   163  157  158 1   
   164  157  165 1   
   165  157  166 1   
   166  158  159 1   
   167  158  160 1   
   168  167  168 1   
   169  167  172 1   
   170  168  169 1   
   171  168  170 1   
   172  168  171 1   
   173  174  175 1   
   174  174  176 1   
   175  177  178 1   
   176  177  179 1   
   177  180  181 1   
   178  180  182 1   
   179  183  184 1   
   180  183  185 1   
   181  186  187 1   
   182  186  188 1   
@<TRIPOS>SUBSTRUCTURE
     1 MOL         1 TEMP              0 ****  ****    0 ROOT
