@<TRIPOS>MOLECULE
MOL
  195   189     1     0     0
SMALL
resp


@<TRIPOS>ATOM
      1 C1         -9.3620    0.2960   -2.4530 c3        1 MOL     -0.299175
      2 C2         -8.3680    0.1480   -1.2310 c         1 MOL      0.668061
      3 O1         -7.1800    0.1140   -1.5860 o         1 MOL     -0.636614
      4 H1         -8.8260    0.1020   -3.3820 hc        1 MOL      0.075481
      5 H2        -10.1770   -0.4210   -2.3480 hc        1 MOL      0.075481
      6 H3         -9.7670    1.3070   -2.4720 hc        1 MOL      0.075481
      7 N1         -8.7570   -0.0420    0.0120 n         1 MOL     -0.387801
      8 C3         -7.8990   -0.2740    1.1480 c3        1 MOL     -0.046478
      9 C4         -7.0600   -1.6060    1.1450 c         1 MOL      0.412500
     10 O2         -6.7580   -2.2680    2.1530 o         1 MOL     -0.428860
     11 C5         -8.6910   -0.2290    2.4680 c3        1 MOL     -0.028376
     12 C6        -10.0230   -1.0080    2.5750 c         1 MOL      0.634610
     13 O3        -10.9410   -0.6700    1.7730 o         1 MOL     -0.656111
     14 O4        -10.0860   -1.9780    3.3880 o         1 MOL     -0.656111
     15 H4         -9.7510    0.0660    0.1520 hn        1 MOL      0.213273
     16 H5         -7.2010    0.5590    1.1810 h1        1 MOL      0.122811
     17 H6         -9.0010    0.8190    2.4970 hc        1 MOL      0.006769
     18 H7         -7.9700   -0.3860    3.2680 hc        1 MOL      0.006769
     19 N2         -6.7270   -2.1820   -0.0290 n         1 MOL     -0.091911
     20 C7         -6.0750   -3.4650   -0.2350 c3        1 MOL     -0.159923
     21 C8         -4.7110   -3.4710    0.5070 c         1 MOL      0.519741
     22 O5         -4.4990   -4.4040    1.2750 o         1 MOL     -0.546019
     23 C9         -6.0600   -3.8100   -1.7260 c3        1 MOL      0.097320
     24 C10        -7.4420   -3.8970   -2.4610 c3        1 MOL     -0.128253
     25 C11        -8.5060   -4.8670   -1.9710 c3        1 MOL     -0.063840
     26 C12        -9.7860   -4.6640   -2.7030 c3        1 MOL      0.023014
     27 N3         -9.5610   -4.8190   -4.2030 n4        1 MOL     -0.185836
     28 H8         -6.9020   -1.6040   -0.8370 hn        1 MOL      0.082051
     29 H9         -6.6250   -4.1910    0.3690 h1        1 MOL      0.106774
     30 H10        -5.5580   -4.7630   -1.8580 hc        1 MOL      0.017611
     31 H11        -5.3580   -3.2450   -2.3430 hc        1 MOL      0.017611
     32 H12        -7.2050   -4.2790   -3.4580 hc        1 MOL      0.018693
     33 H13        -7.8780   -2.9080   -2.5370 hc        1 MOL      0.018693
     34 H14        -8.7190   -4.6630   -0.9200 hc        1 MOL      0.078069
     35 H15        -8.1130   -5.8780   -2.0820 hc        1 MOL      0.078069
     36 H16       -10.1340   -3.6270   -2.6010 hx        1 MOL      0.088604
     37 H17       -10.4880   -5.4280   -2.3880 hx        1 MOL      0.088604
     38 H18       -10.4610   -4.6170   -4.6190 hn        1 MOL      0.261435
     39 H19        -8.8650   -4.1800   -4.5460 hn        1 MOL      0.261435
     40 H20        -9.2980   -5.7360   -4.5240 hn        1 MOL      0.261435
     41 N4         -3.8230   -2.5340    0.3760 n         1 MOL     -0.353014
     42 C13        -3.6880   -1.5270   -0.6670 c3        1 MOL     -0.055274
     43 C14        -3.6600   -0.0520   -0.0590 c         1 MOL      0.220574
     44 O6         -3.4980    0.2190    1.1220 o         1 MOL     -0.404031
     45 C15        -2.4180   -1.8070   -1.5250 c3        1 MOL     -0.381283
     46 C16        -1.0840   -1.9710   -0.7540 c         1 MOL      0.954005
     47 O7         -0.7960   -1.1990    0.1820 o         1 MOL     -0.788570
     48 O8         -0.2860   -2.8990   -1.0500 o         1 MOL     -0.788570
     49 H21        -3.0140   -2.7190    0.9480 hn        1 MOL      0.318630
     50 H22        -4.4930   -1.5530   -1.3920 h1        1 MOL      0.157783
     51 H23        -2.2260   -1.0370   -2.2700 hc        1 MOL      0.092940
     52 H24        -2.5840   -2.7910   -1.9590 hc        1 MOL      0.092940
     53 N5         -3.6520    0.8280   -1.0520 n         1 MOL     -0.049833
     54 C17        -3.6560    2.2700   -0.8470 c3        1 MOL     -0.489691
     55 C18        -2.5850    2.9490   -0.0080 c         1 MOL      0.792922
     56 O9         -1.5700    2.3170    0.2910 o         1 MOL     -0.608586
     57 H25        -4.0060    0.4810   -1.9300 hn        1 MOL      0.246805
     58 H26        -4.5830    2.5240   -0.3280 h1        1 MOL      0.160873
     59 H27        -3.5030    2.6540   -1.8580 h1        1 MOL      0.160873
     60 N6         -2.8230    4.2200    0.3520 n         1 MOL     -0.673886
     61 C19        -2.0560    4.8410    1.4880 c3        1 MOL      0.366312
     62 C20        -2.1750    6.3870    1.5470 c         1 MOL      0.441658
     63 O10        -3.2950    6.9330    1.4740 o         1 MOL     -0.513618
     64 C21        -2.5270    4.2160    2.7960 c3        1 MOL     -0.282218
     65 C22        -1.7890    4.7640    4.0430 c         1 MOL      0.722249
     66 O11        -0.7060    4.2200    4.4120 o         1 MOL     -0.686271
     67 O12        -2.4020    5.6350    4.7270 o         1 MOL     -0.686271
     68 H28        -3.6330    4.6590   -0.0570 hn        1 MOL      0.326922
     69 H29        -1.0160    4.5300    1.3500 h1        1 MOL      0.035414
     70 H30        -2.4270    3.1350    2.7140 hc        1 MOL      0.083120
     71 H31        -3.5900    4.4680    2.8150 hc        1 MOL      0.083120
     72 N7         -1.0350    7.0690    1.6830 n         1 MOL     -0.562367
     73 C23         0.3770    6.5800    1.7950 c3        1 MOL      0.321999
     74 C24         0.8870    6.0060    0.4740 c         1 MOL      0.395916
     75 O13         0.3190    6.0690   -0.5970 o         1 MOL     -0.420793
     76 H32        -1.1650    8.0590    1.8280 hn        1 MOL      0.343921
     77 H33         0.4460    5.6890    2.4100 h1        1 MOL     -0.037886
     78 H34         0.9590    7.4350    2.1500 h1        1 MOL     -0.037886
     79 N8          2.1040    5.4810    0.6160 n         1 MOL     -0.489954
     80 C25         2.7440    4.6320   -0.4070 c3        1 MOL     -0.092838
     81 C26         1.8270    3.5780   -0.9730 c         1 MOL      0.577183
     82 O14         1.1010    2.9440   -0.2030 o         1 MOL     -0.551346
     83 C27         4.0970    4.1240    0.1290 c3        1 MOL      0.339699
     84 C28         4.8450    3.4410   -0.9630 c3        1 MOL     -0.467668
     85 O15         4.0410    3.1880    1.1530 oh        1 MOL     -0.592102
     86 H35         2.5420    5.4750    1.5230 hn        1 MOL      0.293893
     87 H36         3.0700    5.2060   -1.2830 h1        1 MOL      0.089706
     88 H37         4.6110    4.9800    0.5580 h1        1 MOL      0.033058
     89 H38         3.6690    3.6590    1.8980 ho        1 MOL      0.355150
     90 H39         5.7950    3.0400   -0.6030 hc        1 MOL      0.131675
     91 H40         4.3490    2.5340   -1.3050 hc        1 MOL      0.131675
     92 H41         5.0880    4.1320   -1.7800 hc        1 MOL      0.131675
     93 N9          1.9910    3.2660   -2.2710 n         1 MOL     -0.515924
     94 C29         1.2190    2.2860   -3.0040 c3        1 MOL     -0.097599
     95 C30         1.4960    0.8910   -2.4890 c         1 MOL      0.760379
     96 O16         0.9240    0.4300   -1.4640 o         1 MOL     -0.634488
     97 C31        -0.2700    2.6600   -3.1310 c3        1 MOL      0.054373
     98 C32        -0.4440    4.1120   -3.6960 c3        1 MOL      0.196951
     99 C33        -0.9720    1.6540   -4.0130 c3        1 MOL     -0.397040
    100 C34        -1.9240    4.4940   -3.8380 c3        1 MOL     -0.362193
    101 H42         2.5870    3.8920   -2.7940 hn        1 MOL      0.291536
    102 H43         1.6690    2.2090   -4.0010 h1        1 MOL      0.057049
    103 H44        -0.7830    2.6870   -2.1710 hc        1 MOL      0.088471
    104 H45        -0.0030    4.2230   -4.6810 hc        1 MOL     -0.021789
    105 H46        -0.0410    4.9030   -3.0630 hc        1 MOL     -0.021789
    106 H47        -0.9270    1.9220   -5.0700 hc        1 MOL      0.098817
    107 H48        -0.4320    0.7160   -3.9620 hc        1 MOL      0.098817
    108 H49        -1.9880    1.4870   -3.6670 hc        1 MOL      0.098817
    109 H50        -2.4150    4.2620   -2.8920 hc        1 MOL      0.089721
    110 H51        -1.8650    5.5700   -4.0060 hc        1 MOL      0.089721
    111 H52        -2.3400    3.9180   -4.6650 hc        1 MOL      0.089721
    112 N10         2.3840    0.2310   -3.2320 n         1 MOL     -0.569713
    113 C35         2.6990   -1.2260   -2.9390 c3        1 MOL     -0.085729
    114 C36         4.1530   -1.4630   -3.0830 c         1 MOL      0.490375
    115 O17         4.6210   -2.5690   -3.2600 o         1 MOL     -0.545840
    116 C37         1.8190   -2.2280   -3.7490 c3        1 MOL      0.567801
    117 C38         2.1210   -2.3960   -5.2980 c3        1 MOL     -0.150477
    118 O18         0.4830   -1.9230   -3.5390 oh        1 MOL     -0.669401
    119 H53         3.0040    0.7860   -3.8020 hn        1 MOL      0.317149
    120 H54         2.5180   -1.4010   -1.8800 h1        1 MOL      0.059326
    121 H55         1.9730   -3.2310   -3.3410 h1        1 MOL     -0.040863
    122 H56         0.3140   -2.1520   -2.6260 ho        1 MOL      0.404306
    123 H57         1.1720   -2.6400   -5.7610 hc        1 MOL      0.026100
    124 H58         2.6240   -1.5330   -5.7340 hc        1 MOL      0.026100
    125 H59         2.7690   -3.2590   -5.4620 hc        1 MOL      0.026100
    126 N11         4.9920   -0.3830   -3.0200 n         1 MOL     -0.253530
    127 C39         6.4150   -0.5140   -2.9520 c3        1 MOL     -0.030592
    128 C40         6.7810   -0.8750   -1.5170 c         1 MOL      0.416403
    129 O19         7.1490   -0.1040   -0.6990 o         1 MOL     -0.469258
    130 C41         7.2740    0.6300   -3.3780 c3        1 MOL      0.312079
    131 C42         7.5260    0.5230   -4.9020 c3        1 MOL     -0.254703
    132 O20         6.6300    1.8380   -3.1160 oh        1 MOL     -0.602601
    133 H60         4.4990    0.4870   -3.1520 hn        1 MOL      0.165344
    134 H61         6.7540   -1.4040   -3.4920 h1        1 MOL      0.072611
    135 H62         8.2070    0.5840   -2.8150 h1        1 MOL      0.075094
    136 H63         5.9110    1.9370   -3.7400 ho        1 MOL      0.396344
    137 H64         8.1430    1.3390   -5.2810 hc        1 MOL      0.057819
    138 H65         7.9940   -0.4580   -5.0290 hc        1 MOL      0.057819
    139 H66         6.5630    0.5870   -5.3980 hc        1 MOL      0.057819
    140 N12         6.7090   -2.1790   -1.1910 n         1 MOL     -0.507715
    141 C43         6.4400   -2.8610    0.0960 c3        1 MOL      0.370387
    142 C44         5.1310   -2.4880    0.8250 c         1 MOL      0.352861
    143 O21         4.4830   -1.5950    0.2940 o         1 MOL     -0.417451
    144 C45         7.6450   -2.8090    1.0370 c3        1 MOL     -0.415363
    145 C46         8.9240   -3.4500    0.4230 c3        1 MOL     -0.059096
    146 C47        10.0470   -2.4540    0.0700 c3        1 MOL      0.160887
    147 C48        10.6460   -1.9630    1.4590 c3        1 MOL      0.017732
    148 N13        11.6640   -0.9420    1.2450 n4        1 MOL     -0.127205
    149 H67         6.4830   -2.7030   -2.0300 hn        1 MOL      0.284515
    150 H68         6.2550   -3.8930   -0.1960 h1        1 MOL      0.036851
    151 H69         7.4360   -3.2950    1.9880 hc        1 MOL      0.121889
    152 H70         7.9610   -1.8030    1.3320 hc        1 MOL      0.121889
    153 H71         8.6860   -4.0130   -0.4800 hc        1 MOL      0.032525
    154 H72         9.2200   -4.1490    1.2060 hc        1 MOL      0.032525
    155 H73         9.6220   -1.6620   -0.5410 hc        1 MOL     -0.020895
    156 H74        10.8650   -2.9420   -0.4650 hc        1 MOL     -0.020895
    157 H75        11.1380   -2.8080    1.9570 hx        1 MOL      0.067778
    158 H76         9.8030   -1.5260    2.0050 hx        1 MOL      0.067778
    159 H77        11.6190   -0.4290    0.3830 hn        1 MOL      0.209074
    160 H78        11.6630   -0.2730    2.0070 hn        1 MOL      0.209074
    161 H79        12.5670   -1.3910    1.2620 hn        1 MOL      0.209074
    162 N14         4.7330   -3.1710    1.8830 n         1 MOL     -0.464417
    163 C49         3.4360   -2.9040    2.6170 c3        1 MOL      0.361863
    164 C50         2.2040   -2.6630    1.7040 c         1 MOL      0.127306
    165 O22         1.5980   -1.5660    1.8570 o         1 MOL     -0.511243
    166 C51         3.2080   -4.0100    3.7060 c3        1 MOL      0.233873
    167 C52         4.1250   -3.7740    4.9580 c3        1 MOL     -0.237410
    168 C53         4.1400   -5.0420    5.8220 c         1 MOL      0.650042
    169 O23         3.7170   -4.8990    6.9940 o         1 MOL     -0.637910
    170 O24         4.3660   -6.1710    5.3610 o         1 MOL     -0.637910
    171 H80         5.3590   -3.8740    2.2400 hn        1 MOL      0.276940
    172 H81         3.6500   -2.0220    3.2190 h1        1 MOL     -0.038337
    173 H82         3.6160   -4.9420    3.3130 hc        1 MOL     -0.032378
    174 H83         2.1690   -4.1650    3.9810 hc        1 MOL     -0.032378
    175 H84         3.7600   -2.9140    5.5180 hc        1 MOL      0.017613
    176 H85         5.1640   -3.5110    4.7360 hc        1 MOL      0.017613
    177 N15         1.8800   -3.4550    0.7120 n         1 MOL     -0.158082
    178 C54         2.2350   -4.8540    0.3720 c3        1 MOL     -0.075957
    179 H86         1.7750   -5.5300    1.0930 h1        1 MOL      0.050302
    180 H87         1.8720   -5.0890   -0.6290 h1        1 MOL      0.050302
    181 H88         3.3180   -4.9730    0.4030 h1        1 MOL      0.050302
    182 H89         1.0740   -3.1000    0.2000 hn        1 MOL      0.352163
    183 Ca1         0.4780    0.7600    1.1880 Ca        1 MOL      1.776236
    184 O25        -1.3570    0.8000    2.9940 oh        1 MOL     -0.796895
    185 H90        -2.1250    0.8290    2.4200 ho        1 MOL      0.389947
    186 H91        -1.5830    0.1460    3.6500 ho        1 MOL      0.389947
    187 O26         3.1550    0.6540    0.7160 oh        1 MOL     -0.796895
    188 H92         3.4710   -0.2360    0.8970 ho        1 MOL      0.389947
    189 H93         3.9580    1.1590    0.5620 ho        1 MOL      0.389947
    190 O27         0.8320    3.0450    2.8860 oh        1 MOL     -0.796895
    191 H94         1.6820    3.1870    3.3150 ho        1 MOL      0.389947
    192 H95         0.2320    3.5920    3.3660 ho        1 MOL      0.389947
    193 O28         1.9020    0.5970    3.6100 oh        1 MOL     -0.796895
    194 H96         2.5500    1.2410    3.9130 ho        1 MOL      0.389947
    195 H97         1.7710    0.0240    4.3630 ho        1 MOL      0.389947
@<TRIPOS>BOND
     1    1    2 1   
     2    1    4 1   
     3    1    5 1   
     4    1    6 1   
     5    2    3 2   
     6    2    7 1   
     7    7    8 1   
     8    7   15 1   
     9    8    9 1   
    10    8   11 1   
    11    8   16 1   
    12    9   10 2   
    13    9   19 1   
    14   11   12 1   
    15   11   17 1   
    16   11   18 1   
    17   12   13 1   
    18   12   14 1   
    19   19   20 1   
    20   19   28 1   
    21   20   21 1   
    22   20   23 1   
    23   20   29 1   
    24   21   22 2   
    25   21   41 1   
    26   23   24 1   
    27   23   30 1   
    28   23   31 1   
    29   24   25 1   
    30   24   32 1   
    31   24   33 1   
    32   25   26 1   
    33   25   34 1   
    34   25   35 1   
    35   26   27 1   
    36   26   36 1   
    37   26   37 1   
    38   27   38 1   
    39   27   39 1   
    40   27   40 1   
    41   41   42 1   
    42   41   49 1   
    43   42   43 1   
    44   42   45 1   
    45   42   50 1   
    46   43   44 2   
    47   43   53 1   
    48   45   46 1   
    49   45   51 1   
    50   45   52 1   
    51   46   47 1   
    52   46   48 1   
    53   53   54 1   
    54   53   57 1   
    55   54   55 1   
    56   54   58 1   
    57   54   59 1   
    58   55   56 2   
    59   55   60 1   
    60   60   61 1   
    61   60   68 1   
    62   61   62 1   
    63   61   64 1   
    64   61   69 1   
    65   62   63 2   
    66   62   72 1   
    67   64   65 1   
    68   64   70 1   
    69   64   71 1   
    70   65   66 1   
    71   65   67 1   
    72   72   73 1   
    73   72   76 1   
    74   73   74 1   
    75   73   77 1   
    76   73   78 1   
    77   74   75 2   
    78   74   79 1   
    79   79   80 1   
    80   79   86 1   
    81   80   81 1   
    82   80   83 1   
    83   80   87 1   
    84   81   82 2   
    85   81   93 1   
    86   83   84 1   
    87   83   85 1   
    88   83   88 1   
    89   84   90 1   
    90   84   91 1   
    91   84   92 1   
    92   85   89 1   
    93   93   94 1   
    94   93  101 1   
    95   94   95 1   
    96   94   97 1   
    97   94  102 1   
    98   95   96 2   
    99   95  112 1   
   100   97   98 1   
   101   97   99 1   
   102   97  103 1   
   103   98  100 1   
   104   98  104 1   
   105   98  105 1   
   106   99  106 1   
   107   99  107 1   
   108   99  108 1   
   109  100  109 1   
   110  100  110 1   
   111  100  111 1   
   112  112  113 1   
   113  112  119 1   
   114  113  114 1   
   115  113  116 1   
   116  113  120 1   
   117  114  115 2   
   118  114  126 1   
   119  116  117 1   
   120  116  118 1   
   121  116  121 1   
   122  117  123 1   
   123  117  124 1   
   124  117  125 1   
   125  118  122 1   
   126  126  127 1   
   127  126  133 1   
   128  127  128 1   
   129  127  130 1   
   130  127  134 1   
   131  128  129 2   
   132  128  140 1   
   133  130  131 1   
   134  130  132 1   
   135  130  135 1   
   136  131  137 1   
   137  131  138 1   
   138  131  139 1   
   139  132  136 1   
   140  140  141 1   
   141  140  149 1   
   142  141  142 1   
   143  141  144 1   
   144  141  150 1   
   145  142  143 2   
   146  142  162 1   
   147  144  145 1   
   148  144  151 1   
   149  144  152 1   
   150  145  146 1   
   151  145  153 1   
   152  145  154 1   
   153  146  147 1   
   154  146  155 1   
   155  146  156 1   
   156  147  148 1   
   157  147  157 1   
   158  147  158 1   
   159  148  159 1   
   160  148  160 1   
   161  148  161 1   
   162  162  163 1   
   163  162  171 1   
   164  163  164 1   
   165  163  166 1   
   166  163  172 1   
   167  164  165 2   
   168  164  177 1   
   169  166  167 1   
   170  166  173 1   
   171  166  174 1   
   172  167  168 1   
   173  167  175 1   
   174  167  176 1   
   175  168  169 1   
   176  168  170 1   
   177  177  178 1   
   178  177  182 1   
   179  178  179 1   
   180  178  180 1   
   181  178  181 1   
   182  184  185 1   
   183  184  186 1   
   184  187  188 1   
   185  187  189 1   
   186  190  191 1   
   187  190  192 1   
   188  193  194 1   
   189  193  195 1   
@<TRIPOS>SUBSTRUCTURE
     1 MOL         1 TEMP              0 ****  ****    0 ROOT
