@<TRIPOS>MOLECULE
MOL
  178   175     1     0     0
SMALL
resp


@<TRIPOS>ATOM
      1 C1         -2.8160    0.9040    4.6000 c3        1 MOL     -0.274381
      2 C2         -3.9480    0.0630    4.0960 c         1 MOL      0.677475
      3 O1         -4.0690   -1.1330    4.3670 o         1 MOL     -0.591795
      4 H1         -2.1210    0.2790    5.1610 hc        1 MOL      0.059637
      5 H2         -2.2950    1.3580    3.7560 hc        1 MOL      0.059637
      6 H3         -3.2060    1.6870    5.2500 hc        1 MOL      0.059637
      7 N1         -4.9360    0.7160    3.3810 n         1 MOL     -0.678324
      8 C3         -6.2200    0.1340    3.0080 c3        1 MOL      0.406768
      9 C4         -6.4400    0.0760    1.5480 c         1 MOL      0.608575
     10 O2         -6.0810    0.9810    0.7700 o         1 MOL     -0.612668
     11 C5         -7.3320    0.8740    3.7010 c3        1 MOL     -0.440189
     12 C6         -8.7530    0.4090    3.2930 c         1 MOL      0.768760
     13 O3         -9.0440   -0.7900    3.5680 o         1 MOL     -0.735173
     14 O4         -9.6190    1.1750    2.7380 o         1 MOL     -0.735173
     15 H4         -4.6730    1.6830    3.2590 hn        1 MOL      0.314814
     16 H5         -6.1330   -0.9010    3.3280 h1        1 MOL      0.017052
     17 H6         -7.2620    1.9410    3.5030 hc        1 MOL      0.070500
     18 H7         -7.1410    0.6470    4.7580 hc        1 MOL      0.070500
     19 N2         -6.9770   -1.0290    1.0610 n         1 MOL     -0.580221
     20 C7         -7.0590   -1.3930   -0.3350 c3        1 MOL      0.625761
     21 C8         -5.6100   -1.8270   -0.7870 c         1 MOL      0.090688
     22 O5         -4.8100   -2.4240   -0.0740 o         1 MOL     -0.457789
     23 C9         -8.0320   -2.5380   -0.4920 c3        1 MOL     -0.495758
     24 H8         -7.3420   -1.7130    1.7090 hn        1 MOL      0.271516
     25 H9         -7.3600   -0.5030   -0.8880 h1        1 MOL     -0.043744
     26 H10        -7.4920   -3.2980    0.0680 hc        1 MOL      0.122925
     27 H11        -9.0120   -2.3900   -0.0470 hc        1 MOL      0.122925
     28 H12        -8.1030   -2.8530   -1.5310 hc        1 MOL      0.122925
     29 N3         -5.3760   -1.5640   -2.0740 n         1 MOL     -0.608564
     30 C10        -4.0560   -1.7590   -2.6920 c3        1 MOL      0.013011
     31 C11        -3.7810   -3.2450   -3.0780 c         1 MOL      0.608151
     32 O6         -2.9680   -3.4810   -3.9750 o         1 MOL     -0.590386
     33 C12        -3.9590   -0.7810   -3.8190 c3        1 MOL     -0.156599
     34 C13        -4.4520    0.6630   -3.5040 c         1 MOL      0.706760
     35 O7         -4.4790    1.1070   -2.2680 o         1 MOL     -0.685542
     36 O8         -4.8010    1.4100   -4.4350 o         1 MOL     -0.685542
     37 H13        -6.1580   -1.2560   -2.6450 hn        1 MOL      0.382752
     38 H14        -3.3530   -1.3670   -1.9610 h1        1 MOL      0.115491
     39 H15        -4.6700   -0.9970   -4.6130 hc        1 MOL      0.045692
     40 H16        -2.9410   -0.7500   -4.2000 hc        1 MOL      0.045692
     41 N4         -4.3150   -4.2250   -2.4400 n         1 MOL     -0.326863
     42 C14        -4.1150   -5.7210   -2.7460 c3        1 MOL     -0.247176
     43 C15        -2.6950   -6.1910   -2.7130 c         1 MOL      0.645496
     44 O9         -2.3810   -7.0990   -3.4780 o         1 MOL     -0.581035
     45 H17        -5.0360   -4.0590   -1.7600 hn        1 MOL      0.333750
     46 H18        -4.4520   -5.8850   -3.7630 h1        1 MOL      0.122742
     47 H19        -4.7420   -6.3130   -2.0730 h1        1 MOL      0.122742
     48 N5         -1.7040   -5.5240   -2.1080 n         1 MOL     -0.517879
     49 C16        -0.2460   -5.6380   -2.3440 c3        1 MOL      0.107115
     50 C17         0.4380   -5.2830   -1.0210 c         1 MOL      0.429588
     51 O10         0.1720   -4.2980   -0.3620 o         1 MOL     -0.420646
     52 C18         0.1360   -4.6530   -3.4050 c3        1 MOL     -0.185667
     53 C19         1.6200   -4.7600   -3.6990 c         1 MOL      0.650530
     54 N6          2.1370   -3.8750   -4.5070 n         1 MOL     -0.819128
     55 O11         2.3250   -5.6760   -3.2430 o         1 MOL     -0.584758
     56 H20        -2.0130   -4.7410   -1.5460 hn        1 MOL      0.258985
     57 H21        -0.0200   -6.6520   -2.6800 h1        1 MOL      0.070699
     58 H22        -0.1190   -3.6420   -3.0820 hc        1 MOL      0.125979
     59 H23        -0.4100   -4.8470   -4.3310 hc        1 MOL      0.125979
     60 H24         1.6070   -3.1000   -4.8770 hn        1 MOL      0.371414
     61 H25         3.1120   -3.9980   -4.7480 hn        1 MOL      0.371414
     62 N7          1.2870   -6.2140   -0.5090 n         1 MOL     -0.420439
     63 C20         2.0140   -6.0350    0.8260 c3        1 MOL     -0.012669
     64 C21         3.3150   -5.1330    0.8970 c         1 MOL      0.479373
     65 O12         3.5580   -4.4090   -0.0210 o         1 MOL     -0.372737
     66 H26         1.3040   -7.0590   -1.0610 hn        1 MOL      0.279570
     67 H27         2.3310   -6.9940    1.2430 h1        1 MOL      0.052963
     68 H28         1.3040   -5.6340    1.5450 h1        1 MOL      0.052963
     69 N8          4.0090   -5.2330    2.0350 n         1 MOL     -0.395911
     70 C22         5.3220   -4.5560    2.1730 c3        1 MOL     -0.346253
     71 C23         5.2890   -3.0450    2.3760 c         1 MOL      0.542016
     72 O13         6.2520   -2.3920    2.0250 o         1 MOL     -0.531919
     73 C24         6.2020   -5.2490    3.2690 c3        1 MOL      0.466233
     74 C25         5.8680   -4.9060    4.6810 c3        1 MOL     -0.251306
     75 O14         6.4540   -6.6120    3.2070 oh        1 MOL     -0.644439
     76 H29         3.7100   -5.8330    2.7890 hn        1 MOL      0.259971
     77 H30         5.8030   -4.7330    1.2070 h1        1 MOL      0.179785
     78 H31         7.1690   -4.7870    3.0600 h1        1 MOL      0.028051
     79 H32         5.6830   -7.1670    3.3120 ho        1 MOL      0.392965
     80 H33         4.8910   -5.3150    4.9490 hc        1 MOL      0.053104
     81 H34         6.5280   -5.3410    5.4270 hc        1 MOL      0.053104
     82 H35         5.9090   -3.8270    4.8160 hc        1 MOL      0.053104
     83 N9          4.1710   -2.5600    2.8970 n         1 MOL     -0.199446
     84 C26         3.7680   -1.1540    3.0080 c3        1 MOL      0.132971
     85 C27         2.7220   -0.7550    2.0590 c         1 MOL      0.339952
     86 O15         1.8570   -1.5910    1.7550 o         1 MOL     -0.534630
     87 C28         3.4490   -0.7030    4.5180 c3        1 MOL      0.114611
     88 C29         4.5010   -1.0610    5.5980 c3        1 MOL     -0.174469
     89 C30         3.3210    0.8170    4.6580 c3        1 MOL     -0.147613
     90 C31         5.9580   -0.6120    5.3610 c3        1 MOL      0.033518
     91 H36         3.5130   -3.1800    3.3600 hn        1 MOL      0.181080
     92 H37         4.6880   -0.6630    2.6990 h1        1 MOL      0.042463
     93 H38         2.4690   -1.0560    4.8520 hc        1 MOL      0.019532
     94 H39         4.5080   -2.1560    5.6050 hc        1 MOL      0.033423
     95 H40         4.0970   -0.6890    6.5410 hc        1 MOL      0.033423
     96 H41         2.4960    1.2310    4.0720 hc        1 MOL      0.038631
     97 H42         3.1190    1.0810    5.6980 hc        1 MOL      0.038631
     98 H43         4.2490    1.3000    4.3560 hc        1 MOL      0.038631
     99 H44         6.6430   -1.1000    6.0470 hc        1 MOL     -0.006057
    100 H45         6.2630   -0.8270    4.3370 hc        1 MOL     -0.006057
    101 H46         6.0630    0.4630    5.5030 hc        1 MOL     -0.006057
    102 N10         2.6820    0.4640    1.6030 n         1 MOL     -0.216794
    103 C32         1.7300    1.0330    0.6750 c3        1 MOL      0.393209
    104 C33         2.4660    1.8430   -0.4220 c         1 MOL      0.318614
    105 O16         1.8530    2.7270   -0.9980 o         1 MOL     -0.377167
    106 C34         0.7420    1.9530    1.4860 c3        1 MOL     -0.337425
    107 C35        -0.7020    1.9280    0.9310 c         1 MOL      0.744325
    108 O17        -0.9680    1.3730   -0.1420 o         1 MOL     -0.709507
    109 O18        -1.6840    2.4560    1.6090 o         1 MOL     -0.709507
    110 H47         3.4590    1.0480    1.8640 hn        1 MOL      0.150082
    111 H48         1.2000    0.2200    0.1790 h1        1 MOL      0.035716
    112 H49         1.1480    2.9640    1.5280 hc        1 MOL      0.055247
    113 H50         0.6350    1.6210    2.5210 hc        1 MOL      0.055247
    114 N11         3.7040    1.5160   -0.7020 n         1 MOL     -0.450753
    115 C36         4.4570    2.2220   -1.7270 c3        1 MOL      0.460386
    116 C37         4.5840    3.7150   -1.3970 c         1 MOL      0.149324
    117 O19         4.6340    4.0600   -0.2260 o         1 MOL     -0.445642
    118 C38         5.7990    1.5750   -1.9620 c3        1 MOL     -0.325144
    119 C39         5.7430    0.0910   -2.2360 ca        1 MOL      0.059564
    120 C40         5.6910   -0.8360   -1.1490 ca        1 MOL     -0.097234
    121 C41         5.7630   -0.3810   -3.5760 ca        1 MOL     -0.097234
    122 C42         5.5180   -2.2050   -1.5090 ca        1 MOL     -0.195954
    123 C43         5.6810   -1.7210   -3.9040 ca        1 MOL     -0.195954
    124 C44         5.3800   -2.6600   -2.8470 ca        1 MOL      0.024196
    125 H51         4.1170    0.7060   -0.2770 hn        1 MOL      0.219161
    126 H52         3.8880    2.0470   -2.6470 h1        1 MOL     -0.009542
    127 H53         6.4660    1.6520   -1.1000 hc        1 MOL      0.095532
    128 H54         6.2330    2.0340   -2.8490 hc        1 MOL      0.095532
    129 H55         5.6190   -0.5230   -0.1230 ha        1 MOL      0.092936
    130 H56         5.8090    0.3570   -4.3650 ha        1 MOL      0.092936
    131 H57         5.4330   -2.8830   -0.6750 ha        1 MOL      0.115320
    132 H58         5.7630   -2.0730   -4.9210 ha        1 MOL      0.115320
    133 H59         5.3840   -3.7140   -3.0920 ha        1 MOL      0.077579
    134 N12         4.4560    4.6020   -2.4360 n         1 MOL     -0.118216
    135 C45         4.3720    6.0260   -2.2820 c3        1 MOL      0.219737
    136 C46         3.1740    6.5990   -1.5750 c         1 MOL      0.357489
    137 O20         3.1050    7.8240   -1.4060 o         1 MOL     -0.543512
    138 C47         4.6620    6.6260   -3.6810 c3        1 MOL     -0.172997
    139 C48         4.0530    5.5900   -4.6400 c3        1 MOL      0.038899
    140 C49         4.0310    4.2600   -3.8560 c3        1 MOL     -0.159461
    141 H60         5.2210    6.3310   -1.6600 h1        1 MOL      0.020523
    142 H61         4.1810    7.5960   -3.7970 hc        1 MOL      0.056765
    143 H62         5.7510    6.7460   -3.7580 hc        1 MOL      0.056765
    144 H63         3.0520    5.8680   -4.9780 hc        1 MOL      0.033418
    145 H64         4.6260    5.4350   -5.5460 hc        1 MOL      0.033418
    146 H65         3.0120    3.9100   -3.6980 h1        1 MOL      0.080951
    147 H66         4.7320    3.5200   -4.2510 h1        1 MOL      0.080951
    148 N13         2.1530    5.8240   -1.0580 n         1 MOL     -0.254648
    149 C50         1.0880    6.3580   -0.2080 c3        1 MOL     -0.036004
    150 C51         1.5740    6.7460    1.2140 c         1 MOL      0.450663
    151 O21         0.8200    7.5080    1.8350 o         1 MOL     -0.547257
    152 C52        -0.1590    5.4530   -0.1030 c3        1 MOL      0.002930
    153 C53        -1.1230    5.7420   -1.2650 c3        1 MOL     -0.107434
    154 C54        -2.2250    4.6850   -1.2000 c         1 MOL      0.588223
    155 O22        -3.1430    4.7750   -0.3900 o         1 MOL     -0.710454
    156 O23        -2.1700    3.5940   -1.8400 o         1 MOL     -0.710454
    157 H67         2.1200    4.8250   -1.2000 hn        1 MOL      0.220507
    158 H68         0.7170    7.2690   -0.6770 h1        1 MOL      0.096338
    159 H69        -0.6250    5.7100    0.8500 hc        1 MOL      0.052694
    160 H70         0.1280    4.4040   -0.0480 hc        1 MOL      0.052694
    161 H71        -0.6950    5.6000   -2.2540 hc        1 MOL      0.022300
    162 H72        -1.4840    6.7660   -1.1820 hc        1 MOL      0.022300
    163 N14         2.6880    6.2370    1.7030 n         1 MOL     -0.235018
    164 C55         2.9690    6.1570    3.1510 c3        1 MOL     -0.084564
    165 H73         3.7410    6.8810    3.4110 h1        1 MOL      0.059543
    166 H74         2.0600    6.3800    3.7110 h1        1 MOL      0.059543
    167 H75         3.3130    5.1540    3.4010 h1        1 MOL      0.059543
    168 H76         3.1350    5.6560    1.0100 hn        1 MOL      0.183480
    169 Ca1        -3.7710    2.1670   -0.0350 Ca        1 MOL      1.680531
    170 O24        -3.2500   -0.3300    0.7160 oh        1 MOL     -0.768174
    171 H77        -2.3530   -0.5960    0.9270 ho        1 MOL      0.385471
    172 H78        -3.6650   -1.1320    0.3880 ho        1 MOL      0.385471
    173 O25        -5.9920    3.3940   -1.1850 oh        1 MOL     -0.768174
    174 H79        -6.5500    4.1430   -1.3460 ho        1 MOL      0.385471
    175 H80        -6.2620    2.7410   -1.8320 ho        1 MOL      0.385471
    176 O26        -4.5520    3.5720    2.1820 oh        1 MOL     -0.768174
    177 H81        -5.4100    3.8500    2.4940 ho        1 MOL      0.385471
    178 H82        -3.9340    3.9400    2.8170 ho        1 MOL      0.385471
@<TRIPOS>BOND
     1    1    2 1   
     2    1    4 1   
     3    1    5 1   
     4    1    6 1   
     5    2    3 2   
     6    2    7 1   
     7    7    8 1   
     8    7   15 1   
     9    8    9 1   
    10    8   11 1   
    11    8   16 1   
    12    9   10 2   
    13    9   19 1   
    14   11   12 1   
    15   11   17 1   
    16   11   18 1   
    17   12   13 1   
    18   12   14 1   
    19   19   20 1   
    20   19   24 1   
    21   20   21 1   
    22   20   23 1   
    23   20   25 1   
    24   21   22 2   
    25   21   29 1   
    26   23   26 1   
    27   23   27 1   
    28   23   28 1   
    29   29   30 1   
    30   29   37 1   
    31   30   31 1   
    32   30   33 1   
    33   30   38 1   
    34   31   32 2   
    35   31   41 1   
    36   33   34 1   
    37   33   39 1   
    38   33   40 1   
    39   34   35 1   
    40   34   36 1   
    41   41   42 1   
    42   41   45 1   
    43   42   43 1   
    44   42   46 1   
    45   42   47 1   
    46   43   44 2   
    47   43   48 1   
    48   48   49 1   
    49   48   56 1   
    50   49   50 1   
    51   49   52 1   
    52   49   57 1   
    53   50   51 2   
    54   50   62 1   
    55   52   53 1   
    56   52   58 1   
    57   52   59 1   
    58   53   54 1   
    59   53   55 2   
    60   54   60 1   
    61   54   61 1   
    62   62   63 1   
    63   62   66 1   
    64   63   64 1   
    65   63   67 1   
    66   63   68 1   
    67   64   65 2   
    68   64   69 1   
    69   69   70 1   
    70   69   76 1   
    71   70   71 1   
    72   70   73 1   
    73   70   77 1   
    74   71   72 2   
    75   71   83 1   
    76   73   74 1   
    77   73   75 1   
    78   73   78 1   
    79   74   80 1   
    80   74   81 1   
    81   74   82 1   
    82   75   79 1   
    83   83   84 1   
    84   83   91 1   
    85   84   85 1   
    86   84   87 1   
    87   84   92 1   
    88   85   86 2   
    89   85  102 1   
    90   87   88 1   
    91   87   89 1   
    92   87   93 1   
    93   88   90 1   
    94   88   94 1   
    95   88   95 1   
    96   89   96 1   
    97   89   97 1   
    98   89   98 1   
    99   90   99 1   
   100   90  100 1   
   101   90  101 1   
   102  102  103 1   
   103  102  110 1   
   104  103  104 1   
   105  103  106 1   
   106  103  111 1   
   107  104  105 2   
   108  104  114 1   
   109  106  107 1   
   110  106  112 1   
   111  106  113 1   
   112  107  108 1   
   113  107  109 1   
   114  114  115 1   
   115  114  125 1   
   116  115  116 1   
   117  115  118 1   
   118  115  126 1   
   119  116  117 2   
   120  116  134 1   
   121  118  119 1   
   122  118  127 1   
   123  118  128 1   
   124  119  120 ar  
   125  119  121 ar  
   126  120  122 ar  
   127  120  129 1   
   128  121  123 ar  
   129  121  130 1   
   130  122  124 ar  
   131  122  131 1   
   132  123  124 ar  
   133  123  132 1   
   134  124  133 1   
   135  134  135 1   
   136  134  140 1   
   137  135  136 1   
   138  135  138 1   
   139  135  141 1   
   140  136  137 2   
   141  136  148 1   
   142  138  139 1   
   143  138  142 1   
   144  138  143 1   
   145  139  140 1   
   146  139  144 1   
   147  139  145 1   
   148  140  146 1   
   149  140  147 1   
   150  148  149 1   
   151  148  157 1   
   152  149  150 1   
   153  149  152 1   
   154  149  158 1   
   155  150  151 2   
   156  150  163 1   
   157  152  153 1   
   158  152  159 1   
   159  152  160 1   
   160  153  154 1   
   161  153  161 1   
   162  153  162 1   
   163  154  155 1   
   164  154  156 1   
   165  163  164 1   
   166  163  168 1   
   167  164  165 1   
   168  164  166 1   
   169  164  167 1   
   170  170  171 1   
   171  170  172 1   
   172  173  174 1   
   173  173  175 1   
   174  176  177 1   
   175  176  178 1   
@<TRIPOS>SUBSTRUCTURE
     1 MOL         1 TEMP              0 ****  ****    0 ROOT
