@<TRIPOS>MOLECULE
MOL
  181   177     1     0     0
SMALL
resp


@<TRIPOS>ATOM
      1 C1          6.8350    1.8610    5.6630 c3        1 MOL     -0.317422
      2 C2          6.3350    1.5920    4.2220 c         1 MOL      0.690730
      3 O1          5.3640    2.2490    3.7470 o         1 MOL     -0.621892
      4 H1          6.9750    2.9320    5.8040 hc        1 MOL      0.083984
      5 H2          6.0990    1.4940    6.3780 hc        1 MOL      0.083984
      6 H3          7.7830    1.3480    5.8200 hc        1 MOL      0.083984
      7 N1          6.9820    0.8420    3.3370 n         1 MOL     -0.398810
      8 C3          8.4120    0.4380    3.3570 c3        1 MOL     -0.017406
      9 C4          8.6450   -1.0480    3.0860 c         1 MOL      0.378873
     10 O2          7.8210   -1.8680    3.5090 o         1 MOL     -0.414881
     11 C5          9.2410    1.3060    2.4060 c3        1 MOL     -0.174012
     12 C6          8.5110    1.3900    1.0600 c         1 MOL      0.596062
     13 O3          7.9890    2.4560    0.5450 o         1 MOL     -0.681015
     14 O4          8.4080    0.2990    0.4290 o         1 MOL     -0.681015
     15 H4          6.5330    0.5750    2.4670 hn        1 MOL      0.292165
     16 H5          8.8400    0.6190    4.3460 h1        1 MOL      0.100992
     17 H6         10.2610    0.9570    2.2970 hc        1 MOL      0.040061
     18 H7          9.3460    2.3490    2.6860 hc        1 MOL      0.040061
     19 N2          9.7970   -1.4950    2.4780 n         1 MOL     -0.495421
     20 C7         10.0490   -2.8750    2.0140 c3        1 MOL      0.461854
     21 C8          8.9540   -3.4600    1.0640 c         1 MOL      0.235318
     22 O5          8.9640   -4.6710    0.8810 o         1 MOL     -0.499001
     23 C9         10.4060   -3.7500    3.2050 c3        1 MOL     -0.475631
     24 H8         10.5740   -0.8570    2.3040 hn        1 MOL      0.294527
     25 H9         10.9660   -2.6620    1.4540 h1        1 MOL     -0.011430
     26 H10        11.4070   -4.1290    2.9890 hc        1 MOL      0.119234
     27 H11        10.5900   -3.1820    4.1120 hc        1 MOL      0.119234
     28 H12         9.6340   -4.4890    3.3770 hc        1 MOL      0.119234
     29 N3          8.0120   -2.6120    0.5100 n         1 MOL     -0.139437
     30 C10         6.8520   -3.1120   -0.3260 c3        1 MOL      0.094709
     31 C11         6.5950   -2.3580   -1.6380 c         1 MOL      0.482873
     32 O6          6.6880   -1.1530   -1.8190 o         1 MOL     -0.571091
     33 C12         5.5390   -2.9650    0.5000 c3        1 MOL     -0.238869
     34 C13         5.0520   -1.6690    1.1740 c         1 MOL      0.669524
     35 O7          4.1260   -1.6570    2.0500 o         1 MOL     -0.661716
     36 O8          5.5380   -0.5910    0.8220 o         1 MOL     -0.661716
     37 H13         8.1060   -1.6190    0.6720 hn        1 MOL      0.097366
     38 H14         6.9270   -4.1600   -0.5630 h1        1 MOL      0.046773
     39 H15         5.7820   -3.6520    1.3090 hc        1 MOL      0.067860
     40 H16         4.7320   -3.3690   -0.1000 hc        1 MOL      0.067860
     41 N4          6.1860   -3.1010   -2.6850 n         1 MOL     -0.402618
     42 C14         5.8580   -2.6650   -3.9890 c3        1 MOL     -0.311267
     43 C15         4.5190   -1.9150   -4.1820 c         1 MOL      0.585795
     44 O9          4.4820   -1.0950   -5.0930 o         1 MOL     -0.558561
     45 H17         5.9350   -4.0560   -2.4940 hn        1 MOL      0.279658
     46 H18         5.9000   -3.6010   -4.5610 h1        1 MOL      0.170744
     47 H19         6.6630   -2.0040   -4.3300 h1        1 MOL      0.170744
     48 N5          3.5740   -2.1220   -3.2590 n         1 MOL     -0.520455
     49 C16         2.4970   -1.1790   -2.9800 c3        1 MOL      0.153497
     50 C17         2.8580    0.0490   -2.2260 c         1 MOL      0.710680
     51 O10         3.7250    0.0410   -1.3960 o         1 MOL     -0.542809
     52 C18         1.2960   -1.8730   -2.3050 c3        1 MOL     -0.159034
     53 C19         0.6940   -2.9670   -3.1700 c         1 MOL      0.666959
     54 N6          0.0680   -3.8550   -2.5350 n         1 MOL     -0.784193
     55 O11         0.8260   -3.0900   -4.3860 o         1 MOL     -0.560850
     56 H20         3.6540   -2.8470   -2.5670 hn        1 MOL      0.345533
     57 H21         1.9580   -0.8370   -3.8720 h1        1 MOL      0.027903
     58 H22         0.5350   -1.1030   -2.2350 hc        1 MOL      0.036561
     59 H23         1.6400   -2.2970   -1.3610 hc        1 MOL      0.036561
     60 H24         0.1310   -3.8140   -1.5240 hn        1 MOL      0.388314
     61 H25        -0.5530   -4.4080   -3.1120 hn        1 MOL      0.388314
     62 N7          2.0040    1.0570   -2.4340 n         1 MOL     -0.643558
     63 C20         2.0650    2.3660   -1.7280 c3        1 MOL      0.040880
     64 C21         1.4290    3.3720   -2.6850 c         1 MOL      0.788920
     65 O12         1.8010    3.2990   -3.8690 o         1 MOL     -0.629100
     66 H26         1.3880    1.0470   -3.2390 hn        1 MOL      0.325206
     67 H27         3.0740    2.7320   -1.5560 h1        1 MOL      0.010113
     68 H28         1.4610    2.2650   -0.8280 h1        1 MOL      0.010113
     69 N8          0.6580    4.3530   -2.3090 n         1 MOL     -0.627389
     70 C22         0.3090    4.7820   -0.9670 c3        1 MOL      0.069627
     71 C23        -1.1500    4.4490   -0.6380 c         1 MOL      0.437198
     72 O13        -2.1420    4.8510   -1.2510 o         1 MOL     -0.466775
     73 C24         0.4580    6.2870   -0.7630 c3        1 MOL      0.462275
     74 C25         0.5620    6.7910    0.6630 c3        1 MOL     -0.469173
     75 O14         1.6640    6.5970   -1.4980 oh        1 MOL     -0.657010
     76 H29         0.3610    4.9290   -3.0710 hn        1 MOL      0.343786
     77 H30         0.9550    4.3350   -0.2100 h1        1 MOL      0.057850
     78 H31        -0.3060    6.8540   -1.3090 h1        1 MOL     -0.012603
     79 H32         1.6880    7.5530   -1.5930 ho        1 MOL      0.379083
     80 H33        -0.2770    6.3990    1.2390 hc        1 MOL      0.124035
     81 H34         1.5150    6.4530    1.0620 hc        1 MOL      0.124035
     82 H35         0.4670    7.8740    0.5790 hc        1 MOL      0.124035
     83 N9         -1.3020    3.6160    0.4110 n         1 MOL     -0.411359
     84 C26        -2.5330    2.8890    0.7630 c3        1 MOL     -0.052099
     85 C27        -3.4690    3.9540    1.4190 c         1 MOL      0.529472
     86 O15        -3.1090    4.8670    2.2650 o         1 MOL     -0.598388
     87 C28        -2.1970    1.6610    1.6800 c3        1 MOL     -0.005260
     88 C29        -1.2600    0.6830    0.8080 c3        1 MOL      0.011684
     89 C30        -3.3650    0.9080    2.3510 c3        1 MOL     -0.138417
     90 C31        -0.4600   -0.3460    1.5750 c3        1 MOL      0.021548
     91 H36        -0.4840    3.4580    0.9770 hn        1 MOL      0.249969
     92 H37        -3.0280    2.4250   -0.0860 h1        1 MOL      0.150192
     93 H38        -1.6750    2.0950    2.5250 hc        1 MOL      0.047427
     94 H39        -0.5440    1.2730    0.2270 hc        1 MOL      0.023907
     95 H40        -1.8830    0.0770    0.1640 hc        1 MOL      0.023907
     96 H41        -2.9480    0.1060    2.9660 hc        1 MOL      0.048956
     97 H42        -3.9550    1.5180    3.0350 hc        1 MOL      0.048956
     98 H43        -3.9670    0.3330    1.6470 hc        1 MOL      0.048956
     99 H44         0.2990   -0.7330    0.8960 hc        1 MOL     -0.016181
    100 H45         0.0270   -0.0040    2.4910 hc        1 MOL     -0.016181
    101 H46        -1.1940   -1.1180    1.8020 hc        1 MOL     -0.016181
    102 N10        -4.7110    4.1290    0.9500 n         1 MOL     -0.464788
    103 C32        -5.4850    3.3140   -0.0070 c3        1 MOL      0.344309
    104 C33        -6.5020    2.4430    0.7160 c         1 MOL      0.432099
    105 O16        -6.7100    2.4200    1.9340 o         1 MOL     -0.551937
    106 C34        -6.0820    4.1550   -1.1690 c3        1 MOL     -0.319214
    107 C35        -7.0280    5.2490   -0.6490 c         1 MOL      0.738140
    108 O17        -7.8370    4.9690    0.2730 o         1 MOL     -0.723312
    109 O18        -6.9620    6.4100   -1.0990 o         1 MOL     -0.723312
    110 H47        -5.1350    4.9710    1.3150 hn        1 MOL      0.340040
    111 H48        -4.8640    2.6210   -0.5670 h1        1 MOL     -0.036270
    112 H49        -6.7650    3.6290   -1.8350 hc        1 MOL      0.050523
    113 H50        -5.2350    4.5790   -1.6980 hc        1 MOL      0.050523
    114 N11        -7.1550    1.6000   -0.1060 n         1 MOL     -0.502439
    115 C36        -8.0920    0.5040    0.3330 c3        1 MOL      0.228689
    116 C37        -8.4520   -0.3770   -0.8390 c         1 MOL      0.343672
    117 O19        -8.9810    0.2610   -1.7820 o         1 MOL     -0.505357
    118 C38        -9.3040    1.1960    0.8510 c3        1 MOL     -0.298560
    119 C39       -10.3200    0.1670    1.4010 ca        1 MOL      0.043772
    120 C40       -11.5250   -0.0550    0.7190 ca        1 MOL     -0.121795
    121 C41       -10.0190   -0.5090    2.6100 ca        1 MOL     -0.121795
    122 C42       -12.3570   -1.0400    1.2330 ca        1 MOL     -0.139925
    123 C43       -10.9310   -1.4440    3.1630 ca        1 MOL     -0.139925
    124 C44       -12.0880   -1.7610    2.3820 ca        1 MOL     -0.126984
    125 H51        -6.8390    1.6250   -1.0640 hn        1 MOL      0.288441
    126 H52        -7.5460   -0.0950    1.0590 h1        1 MOL      0.029228
    127 H53        -9.8260    1.7700    0.0900 hc        1 MOL      0.164004
    128 H54        -9.1240    1.8060    1.7240 hc        1 MOL      0.164004
    129 H55       -11.7880    0.4580   -0.1940 ha        1 MOL      0.115165
    130 H56        -9.0530   -0.2590    3.0130 ha        1 MOL      0.115165
    131 H57       -13.2290   -1.2130    0.6190 ha        1 MOL      0.099852
    132 H58       -10.7400   -1.9870    4.0680 ha        1 MOL      0.099852
    133 H59       -12.7570   -2.5530    2.6870 ha        1 MOL      0.093044
    134 N12        -8.3850   -1.7640   -0.8230 n         1 MOL      0.080332
    135 C45        -7.6980   -2.6500    0.1610 c3        1 MOL      0.101236
    136 C46        -6.1270   -2.3450    0.2110 c         1 MOL      0.294002
    137 O20        -5.6090   -1.2900   -0.1490 o         1 MOL     -0.502564
    138 C47        -8.0590   -4.0300   -0.3910 c3        1 MOL     -0.114816
    139 C48        -9.5150   -3.8270   -0.8540 c3        1 MOL      0.142868
    140 C49        -9.3310   -2.4790   -1.6370 c3        1 MOL     -0.267278
    141 H60        -8.1390   -2.6350    1.1500 h1        1 MOL     -0.030090
    142 H61        -7.5610   -4.4060   -1.2790 hc        1 MOL      0.051165
    143 H62        -8.0170   -4.8410    0.3410 hc        1 MOL      0.051165
    144 H63        -9.8590   -4.6770   -1.4290 hc        1 MOL     -0.027065
    145 H64       -10.2700   -3.8620   -0.0640 hc        1 MOL     -0.027065
    146 H65        -8.9420   -2.7510   -2.6180 h1        1 MOL      0.101244
    147 H66       -10.2920   -1.9750   -1.5790 h1        1 MOL      0.101244
    148 N13        -5.4080   -3.4340    0.5680 n         1 MOL     -0.203494
    149 C50        -3.9690   -3.4310    0.8080 c3        1 MOL      0.377304
    150 C51        -3.6030   -4.3560    1.9700 c         1 MOL      0.308644
    151 O21        -2.7820   -5.2540    1.7910 o         1 MOL     -0.527639
    152 C52        -3.2680   -3.7160   -0.5210 c3        1 MOL     -0.307982
    153 C53        -3.5140   -5.0210   -1.2900 c3        1 MOL      0.255041
    154 C54        -5.0150   -5.2460   -1.7320 c         1 MOL      0.651106
    155 O22        -5.5630   -6.2600   -1.2430 o         1 MOL     -0.711625
    156 O23        -5.5290   -4.4640   -2.5570 o         1 MOL     -0.711625
    157 H67        -5.8300   -4.3310    0.7500 hn        1 MOL      0.187373
    158 H68        -3.6700   -2.4330    1.1530 h1        1 MOL      0.033768
    159 H69        -2.2280   -3.8230   -0.2310 hc        1 MOL      0.031646
    160 H70        -3.3470   -2.8820   -1.2130 hc        1 MOL      0.031646
    161 H71        -3.2740   -5.9120   -0.7010 hc        1 MOL     -0.106156
    162 H72        -2.8770   -4.9860   -2.1720 hc        1 MOL     -0.106156
    163 N14        -4.2190   -4.2990    3.1090 n         1 MOL     -0.316573
    164 C55        -5.1540   -3.3310    3.6790 c3        1 MOL     -0.119255
    165 H73        -5.3750   -2.5620    2.9400 h1        1 MOL      0.068403
    166 H74        -6.0760   -3.8390    3.9620 h1        1 MOL      0.068403
    167 H75        -4.7070   -2.8700    4.5600 h1        1 MOL      0.068403
    168 H76        -4.0500   -5.0730    3.7390 hn        1 MOL      0.272132
    169 Ca1         6.1450    1.1600   -0.9520 Ca        1 MOL      1.760031
    170 O24         5.9450    3.7840   -1.7770 oh        1 MOL     -0.813432
    171 H77         6.4400    4.5990   -1.6480 ho        1 MOL      0.407577
    172 H78         5.0370    4.0840   -1.9030 ho        1 MOL      0.407577
    173 O25         4.9890    2.5110    0.9590 oh        1 MOL     -0.813432
    174 H79         4.2650    2.2660    1.5410 ho        1 MOL      0.407577
    175 H80         5.2870    3.3510    1.2980 ho        1 MOL      0.407577
    176 O26         5.1490    1.5650   -3.5260 oh        1 MOL     -0.813432
    177 H81         5.2230    2.4170   -3.9700 ho        1 MOL      0.407577
    178 H82         4.5540    1.0610   -4.0830 ho        1 MOL      0.407577
    179 O27         8.5810    1.4480   -2.1570 oh        1 MOL     -0.813432
    180 H83         9.0630    1.6940   -2.9420 ho        1 MOL      0.407577
    181 H84         9.2570    1.2710   -1.4970 ho        1 MOL      0.407577
@<TRIPOS>BOND
     1    1    2 1   
     2    1    4 1   
     3    1    5 1   
     4    1    6 1   
     5    2    3 2   
     6    2    7 1   
     7    7    8 1   
     8    7   15 1   
     9    8    9 1   
    10    8   11 1   
    11    8   16 1   
    12    9   10 2   
    13    9   19 1   
    14   11   12 1   
    15   11   17 1   
    16   11   18 1   
    17   12   13 1   
    18   12   14 1   
    19   19   20 1   
    20   19   24 1   
    21   20   21 1   
    22   20   23 1   
    23   20   25 1   
    24   21   22 2   
    25   21   29 1   
    26   23   26 1   
    27   23   27 1   
    28   23   28 1   
    29   29   30 1   
    30   29   37 1   
    31   30   31 1   
    32   30   33 1   
    33   30   38 1   
    34   31   32 2   
    35   31   41 1   
    36   33   34 1   
    37   33   39 1   
    38   33   40 1   
    39   34   35 1   
    40   34   36 1   
    41   41   42 1   
    42   41   45 1   
    43   42   43 1   
    44   42   46 1   
    45   42   47 1   
    46   43   44 2   
    47   43   48 1   
    48   48   49 1   
    49   48   56 1   
    50   49   50 1   
    51   49   52 1   
    52   49   57 1   
    53   50   51 2   
    54   50   62 1   
    55   52   53 1   
    56   52   58 1   
    57   52   59 1   
    58   53   54 1   
    59   53   55 2   
    60   54   60 1   
    61   54   61 1   
    62   62   63 1   
    63   62   66 1   
    64   63   64 1   
    65   63   67 1   
    66   63   68 1   
    67   64   65 2   
    68   64   69 1   
    69   69   70 1   
    70   69   76 1   
    71   70   71 1   
    72   70   73 1   
    73   70   77 1   
    74   71   72 2   
    75   71   83 1   
    76   73   74 1   
    77   73   75 1   
    78   73   78 1   
    79   74   80 1   
    80   74   81 1   
    81   74   82 1   
    82   75   79 1   
    83   83   84 1   
    84   83   91 1   
    85   84   85 1   
    86   84   87 1   
    87   84   92 1   
    88   85   86 2   
    89   85  102 1   
    90   87   88 1   
    91   87   89 1   
    92   87   93 1   
    93   88   90 1   
    94   88   94 1   
    95   88   95 1   
    96   89   96 1   
    97   89   97 1   
    98   89   98 1   
    99   90   99 1   
   100   90  100 1   
   101   90  101 1   
   102  102  103 1   
   103  102  110 1   
   104  103  104 1   
   105  103  106 1   
   106  103  111 1   
   107  104  105 2   
   108  104  114 1   
   109  106  107 1   
   110  106  112 1   
   111  106  113 1   
   112  107  108 1   
   113  107  109 1   
   114  114  115 1   
   115  114  125 1   
   116  115  116 1   
   117  115  118 1   
   118  115  126 1   
   119  116  117 2   
   120  116  134 1   
   121  118  119 1   
   122  118  127 1   
   123  118  128 1   
   124  119  120 ar  
   125  119  121 ar  
   126  120  122 ar  
   127  120  129 1   
   128  121  123 ar  
   129  121  130 1   
   130  122  124 ar  
   131  122  131 1   
   132  123  124 ar  
   133  123  132 1   
   134  124  133 1   
   135  134  135 1   
   136  134  140 1   
   137  135  136 1   
   138  135  138 1   
   139  135  141 1   
   140  136  137 2   
   141  136  148 1   
   142  138  139 1   
   143  138  142 1   
   144  138  143 1   
   145  139  140 1   
   146  139  144 1   
   147  139  145 1   
   148  140  146 1   
   149  140  147 1   
   150  148  149 1   
   151  148  157 1   
   152  149  150 1   
   153  149  152 1   
   154  149  158 1   
   155  150  151 2   
   156  150  163 1   
   157  152  153 1   
   158  152  159 1   
   159  152  160 1   
   160  153  154 1   
   161  153  161 1   
   162  153  162 1   
   163  154  155 1   
   164  154  156 1   
   165  163  164 1   
   166  163  168 1   
   167  164  165 1   
   168  164  166 1   
   169  164  167 1   
   170  170  171 1   
   171  170  172 1   
   172  173  174 1   
   173  173  175 1   
   174  176  177 1   
   175  176  178 1   
   176  179  180 1   
   177  179  181 1   
@<TRIPOS>SUBSTRUCTURE
     1 MOL         1 TEMP              0 ****  ****    0 ROOT
