@<TRIPOS>MOLECULE
MOL
  192   187     1     0     0
SMALL
resp


@<TRIPOS>ATOM
      1 C1          9.6050    1.2700    1.2110 c3        1 MOL     -0.658436
      2 C2          8.3860    0.7340    0.4740 c         1 MOL      0.806788
      3 O1          7.2670    0.8350    0.9400 o         1 MOL     -0.678642
      4 H1          9.3330    2.1770    1.7500 hc        1 MOL      0.164224
      5 H2          9.9610    0.5200    1.9190 hc        1 MOL      0.164224
      6 H3         10.3930    1.4970    0.4940 hc        1 MOL      0.164224
      7 N1          8.5770    0.0570   -0.6680 n         1 MOL     -0.459223
      8 C3          7.4590   -0.2470   -1.5830 c3        1 MOL      0.011073
      9 C4          6.7530   -1.5980   -1.3420 c         1 MOL      0.380370
     10 O2          6.2280   -2.2580   -2.2880 o         1 MOL     -0.426956
     11 C5          7.9010    0.0290   -2.9990 c3        1 MOL     -0.282075
     12 C6          9.2950   -0.6120   -3.4700 c         1 MOL      0.774268
     13 O3          9.8610   -1.5240   -2.7500 o         1 MOL     -0.662339
     14 O4          9.7590   -0.2520   -4.5650 o         1 MOL     -0.662339
     15 H4          9.4850   -0.1420   -1.0510 hn        1 MOL      0.217413
     16 H5          6.6560    0.4630   -1.3970 h1        1 MOL      0.103785
     17 H6          8.2000    1.0720   -3.0620 hc        1 MOL      0.087671
     18 H7          7.0700   -0.3490   -3.5840 hc        1 MOL      0.087671
     19 N2          6.7920   -2.0610   -0.0620 n         1 MOL     -0.318793
     20 C7          6.2820   -3.4620    0.3150 c3        1 MOL      0.091282
     21 C8          4.8160   -3.6650    0.0210 c         1 MOL      0.373714
     22 O5          4.4380   -4.7050   -0.5220 o         1 MOL     -0.500720
     23 C9          6.6080   -3.6260    1.7600 c3        1 MOL      0.123708
     24 C10         8.1470   -3.6420    1.8950 c3        1 MOL     -0.316489
     25 C11         8.4230   -4.1840    3.2890 c3        1 MOL      0.053284
     26 C12         9.8410   -3.8340    3.7010 c3        1 MOL     -0.031540
     27 N3         10.0960   -4.0470    5.1190 n4        1 MOL     -0.222219
     28 H8          7.2310   -1.4590    0.6230 hn        1 MOL      0.243679
     29 H9          6.8380   -4.2150   -0.2410 h1        1 MOL      0.081643
     30 H10         6.1400   -4.5610    2.0790 hc        1 MOL     -0.007997
     31 H11         6.0970   -2.8440    2.3250 hc        1 MOL     -0.007997
     32 H12         8.5380   -2.6370    1.7420 hc        1 MOL      0.103588
     33 H13         8.6150   -4.3010    1.1580 hc        1 MOL      0.103588
     34 H14         8.2640   -5.2680    3.3190 hc        1 MOL      0.040636
     35 H15         7.7060   -3.8970    4.0550 hc        1 MOL      0.040636
     36 H16        10.0440   -2.7630    3.6300 hx        1 MOL      0.091760
     37 H17        10.5180   -4.4450    3.1160 hx        1 MOL      0.091760
     38 H18         9.6680   -4.9240    5.4130 hn        1 MOL      0.246161
     39 H19        11.0700   -4.0210    5.3850 hn        1 MOL      0.246161
     40 H20         9.7730   -3.2280    5.6160 hn        1 MOL      0.246161
     41 N4          3.9540   -2.6940    0.3960 n         1 MOL     -0.388344
     42 C13         3.9450   -1.3670    1.0350 c3        1 MOL      0.174279
     43 C14         3.9040   -0.1600    0.0420 c         1 MOL      0.115399
     44 O6          3.9040   -0.2550   -1.2000 o         1 MOL     -0.325507
     45 C15         2.7790   -1.3830    2.0640 c3        1 MOL     -0.340941
     46 C16         1.4010   -1.7760    1.5540 c         1 MOL      0.812453
     47 O7          0.9020   -1.0160    0.7640 o         1 MOL     -0.714023
     48 O8          0.9170   -2.8920    1.8510 o         1 MOL     -0.714023
     49 H21         3.0550   -2.9760    0.0420 hn        1 MOL      0.338137
     50 H22         4.8440   -1.3720    1.6460 h1        1 MOL      0.067506
     51 H23         2.6810   -0.3750    2.4780 hc        1 MOL      0.040151
     52 H24         3.0180   -2.0480    2.8900 hc        1 MOL      0.040151
     53 N5          3.9130    1.0100    0.6480 n         1 MOL     -0.171836
     54 C17         3.9520    2.2500   -0.0520 c3        1 MOL     -0.179792
     55 C18         2.6590    2.7580   -0.6290 c         1 MOL      0.368429
     56 O9          1.5760    2.3150   -0.2870 o         1 MOL     -0.440899
     57 H25         4.1070    0.9280    1.6310 hn        1 MOL      0.263594
     58 H26         4.5450    2.0330   -0.9380 h1        1 MOL      0.130786
     59 H27         4.5070    2.9920    0.5220 h1        1 MOL      0.130786
     60 N6          2.8580    3.8030   -1.4670 n         1 MOL     -0.338058
     61 C19         1.8140    4.5850   -2.1080 c3        1 MOL      0.096317
     62 C20         2.2290    6.0450   -2.2890 c         1 MOL      0.463122
     63 O10         3.4240    6.3750   -2.1940 o         1 MOL     -0.535252
     64 C21         1.5740    4.0300   -3.5170 c3        1 MOL     -0.266601
     65 C22         1.2500    2.5670   -3.4370 c         1 MOL      0.719368
     66 O11         0.1200    2.2390   -2.9290 o         1 MOL     -0.677760
     67 O12         2.0600    1.7350   -3.8520 o         1 MOL     -0.677760
     68 H28         3.8160    4.0590   -1.6620 hn        1 MOL      0.273472
     69 H29         0.8610    4.5630   -1.5760 h1        1 MOL      0.121204
     70 H30         2.5370    4.2170   -3.9940 hc        1 MOL      0.080683
     71 H31         0.7780    4.4890   -4.1040 hc        1 MOL      0.080683
     72 N7          1.3450    6.9980   -2.5000 n         1 MOL     -0.438553
     73 C23        -0.1100    6.8640   -2.5810 c3        1 MOL     -0.044986
     74 C24        -0.7260    6.6390   -1.2290 c         1 MOL      0.588798
     75 O13        -0.2620    7.1190   -0.2050 o         1 MOL     -0.505462
     76 H32         1.6550    7.9460   -2.6760 hn        1 MOL      0.323910
     77 H33        -0.3810    6.0960   -3.3020 h1        1 MOL      0.076543
     78 H34        -0.5330    7.7490   -3.0660 h1        1 MOL      0.076543
     79 N8         -1.7640    5.7610   -1.1930 n         1 MOL     -0.654507
     80 C25        -2.3430    5.2260    0.0240 c3        1 MOL      0.013824
     81 C26        -1.5580    4.0340    0.5890 c         1 MOL      1.009306
     82 O14        -1.0040    3.1870   -0.1210 o         1 MOL     -0.798839
     83 C27        -3.8690    4.9850   -0.3580 c3        1 MOL      0.484529
     84 C28        -4.6730    4.7880    0.9540 c3        1 MOL     -0.471199
     85 O15        -3.9760    3.7290   -1.0850 oh        1 MOL     -0.664980
     86 H35        -2.0960    5.3810   -2.0620 hn        1 MOL      0.279217
     87 H36        -2.2600    5.9790    0.8090 h1        1 MOL      0.049496
     88 H37        -4.2650    5.8020   -0.9550 h1        1 MOL      0.003626
     89 H38        -3.6230    3.9350   -1.9580 ho        1 MOL      0.404006
     90 H39        -4.4500    5.6880    1.5090 hc        1 MOL      0.117662
     91 H40        -5.7350    4.6740    0.7180 hc        1 MOL      0.117662
     92 H41        -4.2470    3.8870    1.4070 hc        1 MOL      0.117662
     93 N9         -1.6990    3.9120    1.9400 n         1 MOL     -0.807966
     94 C29        -1.2260    2.8380    2.7970 c3        1 MOL      0.024873
     95 C30        -1.7380    1.3510    2.6360 c         1 MOL      0.687931
     96 O16        -1.6580    0.7720    1.5210 o         1 MOL     -0.578795
     97 C31         0.3300    2.8660    2.9510 c3        1 MOL      0.541394
     98 C32         1.0530    4.1710    2.9010 c3        1 MOL     -0.164506
     99 C33         0.7510    2.0220    4.1880 c3        1 MOL     -0.533759
    100 C34         0.5180    5.1720    4.0080 c3        1 MOL     -0.249405
    101 H42        -2.3500    4.5340    2.3920 hn        1 MOL      0.354695
    102 H43        -1.5830    3.2060    3.7630 h1        1 MOL      0.030142
    103 H44         0.5750    2.2790    2.0650 hc        1 MOL     -0.177046
    104 H45         0.8630    4.5540    1.8950 hc        1 MOL      0.084729
    105 H46         2.1200    4.0810    3.0960 hc        1 MOL      0.084729
    106 H47         1.8360    1.9910    4.1300 hc        1 MOL      0.119943
    107 H48         0.2930    2.3750    5.1090 hc        1 MOL      0.119943
    108 H49         0.4860    0.9900    3.9590 hc        1 MOL      0.119943
    109 H50         0.6970    4.8030    5.0130 hc        1 MOL      0.061559
    110 H51         1.0950    6.0780    3.8330 hc        1 MOL      0.061559
    111 H52        -0.5490    5.3910    3.9560 hc        1 MOL      0.061559
    112 N10        -2.2490    0.7520    3.6710 n         1 MOL     -0.548895
    113 C35        -2.7900   -0.6580    3.5790 c3        1 MOL     -0.031155
    114 C36        -4.0970   -0.9120    2.8270 c         1 MOL      0.593267
    115 O17        -4.5260   -2.0320    2.6210 o         1 MOL     -0.551584
    116 C37        -2.8880   -1.2850    4.9610 c3        1 MOL      0.588355
    117 C38        -4.0760   -0.8780    5.8200 c3        1 MOL     -0.366383
    118 O18        -1.8300   -1.1670    5.8780 oh        1 MOL     -0.640828
    119 H53        -2.2480    1.1800    4.5890 hn        1 MOL      0.272501
    120 H54        -2.0640   -1.2850    3.0580 h1        1 MOL      0.045692
    121 H55        -2.9570   -2.3540    4.7510 h1        1 MOL     -0.048127
    122 H56        -1.0030   -1.4080    5.4520 ho        1 MOL      0.388169
    123 H57        -4.0920   -1.4710    6.7340 hc        1 MOL      0.087836
    124 H58        -4.0010    0.1780    6.0820 hc        1 MOL      0.087836
    125 H59        -5.0110   -1.1270    5.3050 hc        1 MOL      0.087836
    126 N11        -4.8440    0.1280    2.3780 n         1 MOL     -0.524635
    127 C39        -6.1830   -0.1310    1.7860 c3        1 MOL     -0.047294
    128 C40        -6.0410   -0.9090    0.4900 c         1 MOL      0.768838
    129 O19        -5.3670   -0.3930   -0.4150 o         1 MOL     -0.582266
    130 C41        -6.8310    1.2230    1.4810 c3        1 MOL      0.321556
    131 C42        -8.1890    1.0280    0.8630 c3        1 MOL     -0.126393
    132 O20        -6.9520    1.8540    2.7470 oh        1 MOL     -0.588081
    133 H60        -4.5270    1.0510    2.6580 hn        1 MOL      0.260679
    134 H61        -6.8080   -0.8020    2.3640 h1        1 MOL      0.063126
    135 H62        -6.2140    1.8470    0.8420 h1        1 MOL      0.014449
    136 H63        -6.0490    2.1270    2.9390 ho        1 MOL      0.352031
    137 H64        -8.0020    0.8860   -0.2010 hc        1 MOL      0.041985
    138 H65        -8.5630    0.0830    1.2580 hc        1 MOL      0.041985
    139 H66        -8.8720    1.8410    1.1030 hc        1 MOL      0.041985
    140 N12        -6.7090   -2.0060    0.3320 n         1 MOL     -0.401435
    141 C43        -6.8460   -2.9430   -0.8040 c3        1 MOL      0.014858
    142 C44        -5.4860   -3.0700   -1.6580 c         1 MOL      0.537250
    143 O21        -5.4570   -2.7900   -2.8630 o         1 MOL     -0.496602
    144 C45        -8.0190   -2.4900   -1.6740 c3        1 MOL     -0.244973
    145 C46        -9.4020   -2.1840   -0.9350 c3        1 MOL     -0.021899
    146 C47       -10.5930   -1.4680   -1.7230 c3        1 MOL     -0.051433
    147 C48       -11.8600   -1.1830   -0.8880 c3        1 MOL      0.032000
    148 N13       -12.5500   -2.4030   -0.6320 n4        1 MOL     -0.073835
    149 H67        -7.3290   -2.3020    1.0810 hn        1 MOL      0.227870
    150 H68        -7.2070   -3.9270   -0.4920 h1        1 MOL      0.074334
    151 H69        -8.1670   -3.3470   -2.3290 hc        1 MOL      0.100528
    152 H70        -7.7780   -1.6450   -2.3210 hc        1 MOL      0.100528
    153 H71        -9.1490   -1.5310   -0.1020 hc        1 MOL      0.011970
    154 H72        -9.8160   -3.1430   -0.6190 hc        1 MOL      0.011970
    155 H73       -10.8960   -1.9970   -2.6270 hc        1 MOL      0.055637
    156 H74       -10.2850   -0.4640   -2.0100 hc        1 MOL      0.055637
    157 H75       -12.5030   -0.5490   -1.4970 hx        1 MOL      0.052683
    158 H76       -11.5500   -0.6690    0.0310 hx        1 MOL      0.052683
    159 H77       -13.4010   -2.1940   -0.1210 hn        1 MOL      0.163976
    160 H78       -12.8460   -2.8500   -1.4860 hn        1 MOL      0.163976
    161 H79       -12.0340   -3.1550   -0.2000 hn        1 MOL      0.163976
    162 N14        -4.4110   -3.4840   -0.9950 n         1 MOL     -0.358989
    163 C49        -3.0390   -3.5170   -1.4110 c3        1 MOL      0.050635
    164 C50        -2.0160   -2.9090   -0.4150 c         1 MOL      0.312151
    165 O22        -1.5460   -1.8090   -0.6150 o         1 MOL     -0.465136
    166 C51        -2.6660   -4.8700   -2.0480 c3        1 MOL     -0.116729
    167 C52        -3.5020   -5.2120   -3.2450 c3        1 MOL     -0.234566
    168 C53        -3.0290   -6.2800   -4.2080 c         1 MOL      0.775663
    169 O23        -2.0580   -6.0970   -4.9200 o         1 MOL     -0.628447
    170 O24        -3.5890   -7.3730   -4.2680 o         1 MOL     -0.628447
    171 H80        -4.5800   -3.6780   -0.0180 hn        1 MOL      0.229481
    172 H81        -2.9830   -2.7360   -2.1690 h1        1 MOL      0.145911
    173 H82        -2.7260   -5.7030   -1.3430 hc        1 MOL      0.078098
    174 H83        -1.6280   -5.0010   -2.3710 hc        1 MOL      0.078098
    175 H84        -3.4890   -4.2650   -3.7850 hc        1 MOL      0.031294
    176 H85        -4.5360   -5.3560   -2.9300 hc        1 MOL      0.031294
    177 N15        -1.5570   -3.6170    0.6810 n         1 MOL     -0.221007
    178 C54        -1.9400   -4.9820    1.1200 c3        1 MOL     -0.158549
    179 H86        -1.5370   -5.7150    0.4220 h1        1 MOL      0.072927
    180 H87        -1.5380   -5.1700    2.1160 h1        1 MOL      0.072927
    181 H88        -3.0270   -5.0640    1.1450 h1        1 MOL      0.072927
    182 H89        -0.7920   -3.1670    1.1620 hn        1 MOL      0.285908
    183 Ca1        -0.4130    0.6000   -0.9070 Ca        1 MOL      1.772125
    184 O25        -1.5630   -0.6440   -3.2840 oh        1 MOL     -0.873686
    185 H90        -0.8890   -1.2500   -3.5870 ho        1 MOL      0.419348
    186 H91        -2.2130   -0.6440   -3.9900 ho        1 MOL      0.419348
    187 O26        -2.9950    1.0330   -1.3120 oh        1 MOL     -0.873686
    188 H92        -3.3540    1.9240   -1.3120 ho        1 MOL      0.419348
    189 H93        -3.7620    0.4710   -1.2170 ho        1 MOL      0.419348
    190 O27         1.4490   -0.5090   -2.4670 oh        1 MOL     -0.873686
    191 H94         2.1130   -1.1960   -2.4810 ho        1 MOL      0.419348
    192 H95         1.8300    0.1960   -2.9900 ho        1 MOL      0.419348
@<TRIPOS>BOND
     1    1    2 1   
     2    1    4 1   
     3    1    5 1   
     4    1    6 1   
     5    2    3 2   
     6    2    7 1   
     7    7    8 1   
     8    7   15 1   
     9    8    9 1   
    10    8   11 1   
    11    8   16 1   
    12    9   10 2   
    13    9   19 1   
    14   11   12 1   
    15   11   17 1   
    16   11   18 1   
    17   12   13 1   
    18   12   14 1   
    19   19   20 1   
    20   19   28 1   
    21   20   21 1   
    22   20   23 1   
    23   20   29 1   
    24   21   22 2   
    25   21   41 1   
    26   23   24 1   
    27   23   30 1   
    28   23   31 1   
    29   24   25 1   
    30   24   32 1   
    31   24   33 1   
    32   25   26 1   
    33   25   34 1   
    34   25   35 1   
    35   26   27 1   
    36   26   36 1   
    37   26   37 1   
    38   27   38 1   
    39   27   39 1   
    40   27   40 1   
    41   41   42 1   
    42   41   49 1   
    43   42   43 1   
    44   42   45 1   
    45   42   50 1   
    46   43   44 2   
    47   43   53 1   
    48   45   46 1   
    49   45   51 1   
    50   45   52 1   
    51   46   47 1   
    52   46   48 1   
    53   53   54 1   
    54   53   57 1   
    55   54   55 1   
    56   54   58 1   
    57   54   59 1   
    58   55   56 2   
    59   55   60 1   
    60   60   61 1   
    61   60   68 1   
    62   61   62 1   
    63   61   64 1   
    64   61   69 1   
    65   62   63 2   
    66   62   72 1   
    67   64   65 1   
    68   64   70 1   
    69   64   71 1   
    70   65   66 1   
    71   65   67 1   
    72   72   73 1   
    73   72   76 1   
    74   73   74 1   
    75   73   77 1   
    76   73   78 1   
    77   74   75 2   
    78   74   79 1   
    79   79   80 1   
    80   79   86 1   
    81   80   81 1   
    82   80   83 1   
    83   80   87 1   
    84   81   82 2   
    85   81   93 1   
    86   83   84 1   
    87   83   85 1   
    88   83   88 1   
    89   84   90 1   
    90   84   91 1   
    91   84   92 1   
    92   85   89 1   
    93   93   94 1   
    94   93  101 1   
    95   94   95 1   
    96   94   97 1   
    97   94  102 1   
    98   95   96 2   
    99   95  112 1   
   100   97   98 1   
   101   97   99 1   
   102   97  103 1   
   103   98  100 1   
   104   98  104 1   
   105   98  105 1   
   106   99  106 1   
   107   99  107 1   
   108   99  108 1   
   109  100  109 1   
   110  100  110 1   
   111  100  111 1   
   112  112  113 1   
   113  112  119 1   
   114  113  114 1   
   115  113  116 1   
   116  113  120 1   
   117  114  115 2   
   118  114  126 1   
   119  116  117 1   
   120  116  118 1   
   121  116  121 1   
   122  117  123 1   
   123  117  124 1   
   124  117  125 1   
   125  118  122 1   
   126  126  127 1   
   127  126  133 1   
   128  127  128 1   
   129  127  130 1   
   130  127  134 1   
   131  128  129 2   
   132  128  140 1   
   133  130  131 1   
   134  130  132 1   
   135  130  135 1   
   136  131  137 1   
   137  131  138 1   
   138  131  139 1   
   139  132  136 1   
   140  140  141 1   
   141  140  149 1   
   142  141  142 1   
   143  141  144 1   
   144  141  150 1   
   145  142  143 2   
   146  142  162 1   
   147  144  145 1   
   148  144  151 1   
   149  144  152 1   
   150  145  146 1   
   151  145  153 1   
   152  145  154 1   
   153  146  147 1   
   154  146  155 1   
   155  146  156 1   
   156  147  148 1   
   157  147  157 1   
   158  147  158 1   
   159  148  159 1   
   160  148  160 1   
   161  148  161 1   
   162  162  163 1   
   163  162  171 1   
   164  163  164 1   
   165  163  166 1   
   166  163  172 1   
   167  164  165 2   
   168  164  177 1   
   169  166  167 1   
   170  166  173 1   
   171  166  174 1   
   172  167  168 1   
   173  167  175 1   
   174  167  176 1   
   175  168  169 1   
   176  168  170 1   
   177  177  178 1   
   178  177  182 1   
   179  178  179 1   
   180  178  180 1   
   181  178  181 1   
   182  184  185 1   
   183  184  186 1   
   184  187  188 1   
   185  187  189 1   
   186  190  191 1   
   187  190  192 1   
@<TRIPOS>SUBSTRUCTURE
     1 MOL         1 TEMP              0 ****  ****    0 ROOT
