@<TRIPOS>MOLECULE
MOL
  192   187     1     0     0
SMALL
resp


@<TRIPOS>ATOM
      1 C1          4.1140   -1.5290   -2.3220 c3        1 MOL     -0.169467
      2 C2          3.3460   -2.3990   -1.3000 c         1 MOL      0.691881
      3 O1          2.2740   -2.0200   -0.8250 o         1 MOL     -0.528149
      4 H1          3.6410   -1.6140   -3.3000 hc        1 MOL      0.033812
      5 H2          4.0960   -0.4870   -2.0000 hc        1 MOL      0.033812
      6 H3          5.1470   -1.8710   -2.3870 hc        1 MOL      0.033812
      7 N1          3.7980   -3.6180   -1.0820 n         1 MOL     -0.549910
      8 C3          3.2240   -4.4970   -0.0540 c3        1 MOL     -0.042227
      9 C4          1.6840   -4.7890   -0.1500 c         1 MOL      0.852535
     10 O2          0.9580   -4.9440    0.8460 o         1 MOL     -0.557329
     11 C5          3.5800   -4.1970    1.4520 c3        1 MOL     -0.481576
     12 C6          5.0630   -3.9620    1.5610 c         1 MOL      0.956664
     13 O3          5.5380   -2.8390    1.5060 o         1 MOL     -0.827690
     14 O4          5.9000   -4.9300    1.6040 o         1 MOL     -0.827690
     15 H4          4.6020   -3.9400   -1.5980 hn        1 MOL      0.289849
     16 H5          3.7590   -5.4460   -0.1240 h1        1 MOL      0.079012
     17 H6          3.2860   -5.0780    2.0210 hc        1 MOL      0.145841
     18 H7          3.0940   -3.3510    1.9360 hc        1 MOL      0.145841
     19 N2          1.1360   -4.9050   -1.3580 n         1 MOL     -0.713165
     20 C7         -0.2770   -5.2560   -1.6410 c3        1 MOL     -0.226133
     21 C8         -0.6720   -6.6790   -1.1650 c         1 MOL      0.607387
     22 O5          0.1430   -7.6020   -1.1820 o         1 MOL     -0.586113
     23 C9         -0.5670   -5.1280   -3.1900 c3        1 MOL      0.037339
     24 C10         0.3780   -6.1230   -3.9900 c3        1 MOL     -0.007723
     25 C11        -0.4410   -3.6900   -3.7790 c3        1 MOL     -0.065856
     26 C12         0.0540   -6.0620   -5.4750 c3        1 MOL     -0.275981
     27 H8          1.6790   -4.7070   -2.1840 hn        1 MOL      0.335830
     28 H9         -0.8670   -4.5700   -1.0420 h1        1 MOL      0.218030
     29 H10        -1.5470   -5.4980   -3.4910 hc        1 MOL      0.121377
     30 H11         0.2450   -7.1620   -3.6770 hc        1 MOL      0.043354
     31 H12         1.4130   -5.7770   -3.8930 hc        1 MOL      0.043354
     32 H13        -0.9660   -3.6340   -4.7310 hc        1 MOL      0.039627
     33 H14        -1.1310   -3.0950   -3.1850 hc        1 MOL      0.039627
     34 H15         0.5750   -3.2940   -3.8990 hc        1 MOL      0.039627
     35 H16         0.5050   -5.1900   -5.9510 hc        1 MOL      0.053966
     36 H17         0.5640   -6.9570   -5.8530 hc        1 MOL      0.053966
     37 H18        -1.0090   -6.2360   -5.6330 hc        1 MOL      0.053966
     38 N3         -1.9470   -6.9250   -0.7860 n         1 MOL     -0.433519
     39 C13        -3.1330   -6.0170   -0.7400 c3        1 MOL      0.071955
     40 C14        -4.0170   -6.3270    0.5000 c         1 MOL      0.498200
     41 O6         -4.0980   -7.4560    1.0400 o         1 MOL     -0.559865
     42 C15        -4.0810   -6.2100   -1.9410 c3        1 MOL     -0.190780
     43 C16        -5.0740   -5.1400   -2.2480 c         1 MOL      0.725621
     44 O7         -5.8740   -5.2460   -3.2210 o         1 MOL     -0.726039
     45 O8         -5.0850   -4.1800   -1.4870 o         1 MOL     -0.726039
     46 H19        -2.1180   -7.8650   -0.4740 hn        1 MOL      0.266100
     47 H20        -2.7410   -4.9900   -0.7380 h1        1 MOL      0.020880
     48 H21        -4.5860   -7.1730   -1.9420 hc        1 MOL      0.024269
     49 H22        -3.4220   -6.2340   -2.8030 hc        1 MOL      0.024269
     50 N4         -4.6430   -5.3190    1.1370 n         1 MOL     -0.313733
     51 C17        -5.0000   -5.2540    2.5900 c3        1 MOL      0.033822
     52 C18        -5.9080   -4.0240    3.0140 c         1 MOL      0.366217
     53 O9         -7.0770   -4.2050    3.3120 o         1 MOL     -0.529575
     54 H23        -4.7030   -4.4930    0.5650 hn        1 MOL      0.230104
     55 H24        -4.0640   -5.1680    3.1430 h1        1 MOL      0.041779
     56 H25        -5.4040   -6.2140    2.8930 h1        1 MOL      0.041779
     57 N5         -5.4310   -2.7930    2.8070 n         1 MOL     -0.093338
     58 C19        -6.1450   -1.6560    3.2740 c3        1 MOL     -0.115752
     59 C20        -7.1880   -0.9960    2.3510 c         1 MOL      0.442679
     60 O10        -7.9350   -0.1420    2.8590 o         1 MOL     -0.588638
     61 C21        -5.1350   -0.5740    3.5540 c3        1 MOL     -0.198164
     62 C22        -4.2370   -0.3890    2.3530 c         1 MOL      0.685118
     63 O11        -4.5150    0.5090    1.5390 o         1 MOL     -0.648527
     64 O12        -3.2100   -1.0290    2.2290 o         1 MOL     -0.648527
     65 H26        -4.4850   -2.5550    2.5670 hn        1 MOL      0.122303
     66 H27        -6.7120   -1.9210    4.1680 h1        1 MOL      0.107486
     67 H28        -4.4850   -0.9700    4.3390 hc        1 MOL      0.058041
     68 H29        -5.6000    0.3570    3.8730 hc        1 MOL      0.058041
     69 N6         -7.2160   -1.1120    1.0440 n         1 MOL     -0.184334
     70 C23        -8.1050   -0.3640    0.1010 c3        1 MOL     -0.292983
     71 C24        -7.7780    1.1280   -0.1490 c         1 MOL      0.539700
     72 O13        -8.4940    1.6180   -0.9700 o         1 MOL     -0.577576
     73 H30        -6.5620   -1.8110    0.7040 hn        1 MOL      0.247799
     74 H31        -9.0900   -0.4430    0.5670 h1        1 MOL      0.141607
     75 H32        -8.0600   -0.8150   -0.8900 h1        1 MOL      0.141607
     76 N7         -6.9250    1.8170    0.6400 n         1 MOL     -0.000546
     77 C25        -6.8260    3.2670    0.6030 c3        1 MOL      0.012356
     78 C26        -6.5160    3.8750   -0.7900 c         1 MOL      0.310695
     79 O14        -6.8410    5.0900   -0.9480 o         1 MOL     -0.538144
     80 C27        -7.9530    3.9460    1.3160 c3        1 MOL      0.188988
     81 C28        -7.8760    3.6880    2.8450 c3        1 MOL     -0.305842
     82 C29        -9.2320    3.6410    3.5400 c         1 MOL      0.657687
     83 N8        -10.0070    2.5830    3.2930 n         1 MOL     -0.769312
     84 O15        -9.6080    4.5600    4.2430 o         1 MOL     -0.590134
     85 H33        -6.3020    1.2840    1.2270 hn        1 MOL      0.036647
     86 H34        -5.9390    3.4680    1.2020 h1        1 MOL      0.073871
     87 H35        -8.9040    3.6110    0.9150 hc        1 MOL     -0.017489
     88 H36        -8.0420    5.0180    1.1090 hc        1 MOL     -0.017489
     89 H37        -7.2510    4.4710    3.2830 hc        1 MOL      0.088344
     90 H38        -7.2720    2.8240    3.1410 hc        1 MOL      0.088344
     91 H39        -9.7350    1.8180    2.6860 hn        1 MOL      0.342425
     92 H40       -10.9910    2.6250    3.5310 hn        1 MOL      0.342425
     93 N9         -5.8540    3.1950   -1.6890 n         1 MOL     -0.159971
     94 C30        -5.4100    3.7110   -2.9720 c3        1 MOL      0.011519
     95 C31        -3.9060    3.6530   -3.0760 c         1 MOL      0.507975
     96 O16        -3.2990    4.3880   -3.8490 o         1 MOL     -0.566311
     97 C32        -6.0280    2.9700   -4.1540 c3        1 MOL      0.193765
     98 C33        -5.9420    1.4280   -3.9740 c3        1 MOL     -0.292000
     99 C34        -7.4790    3.4450   -4.3170 c3        1 MOL     -0.292000
    100 H41        -5.5420    2.2720   -1.4170 hn        1 MOL      0.150242
    101 H42        -5.5890    4.7690   -3.1180 h1        1 MOL      0.083646
    102 H43        -5.5110    3.4030   -5.0050 hc        1 MOL     -0.016299
    103 H44        -6.7160    1.0240   -3.3160 hc        1 MOL      0.071253
    104 H45        -6.0340    0.9350   -4.9450 hc        1 MOL      0.071253
    105 H46        -4.9490    1.1310   -3.6300 hc        1 MOL      0.071253
    106 H47        -7.9900    2.9580   -5.1460 hc        1 MOL      0.071253
    107 H48        -8.0640    3.2490   -3.4160 hc        1 MOL      0.071253
    108 H49        -7.4850    4.5190   -4.5130 hc        1 MOL      0.071253
    109 N10        -3.2210    2.8380   -2.2860 n         1 MOL     -0.401673
    110 C35        -1.8240    2.4060   -2.4120 c3        1 MOL      0.146627
    111 C36        -0.9710    2.8860   -1.1310 c         1 MOL      0.628962
    112 O17        -1.5750    3.2320   -0.1390 o         1 MOL     -0.535718
    113 C37        -1.8190    0.8250   -2.4730 c3        1 MOL      0.035590
    114 C38        -0.4600    0.1220   -2.6010 c         1 MOL      0.448371
    115 N11        -0.0420   -0.6400   -1.6240 n         1 MOL     -0.663708
    116 O18         0.2340    0.3080   -3.5760 o         1 MOL     -0.575058
    117 H50        -3.7420    2.5520   -1.4720 hn        1 MOL      0.213891
    118 H51        -1.3060    2.7830   -3.2840 h1        1 MOL      0.035436
    119 H52        -2.4000    0.5400   -3.3460 hc        1 MOL      0.015353
    120 H53        -2.3650    0.5200   -1.5740 hc        1 MOL      0.015353
    121 H54        -0.6170   -1.0120   -0.8750 hn        1 MOL      0.351471
    122 H55         0.9370   -0.8320   -1.7490 hn        1 MOL      0.351471
    123 N12         0.3900    2.8060   -1.1760 n         1 MOL     -0.700066
    124 C39         1.1670    3.2800    0.0050 c3        1 MOL      0.209240
    125 C40         2.4930    3.7880   -0.4050 c         1 MOL      0.562559
    126 O19         3.1310    3.3120   -1.3290 o         1 MOL     -0.565037
    127 C41         1.3450    2.0040    0.9570 c3        1 MOL     -0.173093
    128 C42         1.8540    2.4660    2.3340 ca        1 MOL      0.095336
    129 C43         3.2120    2.3610    2.6890 ca        1 MOL     -0.237102
    130 C44         0.9020    2.9950    3.1980 ca        1 MOL     -0.237102
    131 C45         3.5990    2.7510    3.9790 ca        1 MOL     -0.148745
    132 C46         1.2110    3.1920    4.5220 ca        1 MOL     -0.148745
    133 C47         2.5890    3.0820    4.9060 ca        1 MOL      0.226493
    134 O20         2.8110    3.3720    6.2170 oh        1 MOL     -0.506707
    135 H56         0.8700    2.2950   -1.9020 hn        1 MOL      0.351713
    136 H57         0.6790    4.0670    0.5800 h1        1 MOL      0.046824
    137 H58         2.1340    1.3540    0.5760 hc        1 MOL      0.100645
    138 H59         0.4030    1.4720    0.9760 hc        1 MOL      0.100645
    139 H60         3.9860    2.1140    1.9730 ha        1 MOL      0.172983
    140 H61        -0.1210    3.0080    2.8630 ha        1 MOL      0.172983
    141 H62         4.6290    2.6310    4.2880 ha        1 MOL      0.122122
    142 H63         0.4670    3.4560    5.2680 ha        1 MOL      0.122122
    143 H64         3.7560    3.5190    6.3530 ho        1 MOL      0.365838
    144 N13         2.9920    4.8950    0.1810 n         1 MOL     -0.507883
    145 C48         4.3730    5.3170   -0.0110 c3        1 MOL      0.217715
    146 C49         5.2960    4.6010    1.0260 c         1 MOL      0.418151
    147 O21         5.2760    4.9660    2.1780 o         1 MOL     -0.532150
    148 C50         4.4660    6.8180    0.0590 c3        1 MOL      0.078433
    149 C51         3.7350    7.5760   -1.1020 c3        1 MOL     -0.203011
    150 C52         3.9720    9.0830   -0.9610 c         1 MOL      0.684793
    151 O22         3.6620    9.6650    0.0990 o         1 MOL     -0.691388
    152 O23         4.5300    9.6370   -1.9790 o         1 MOL     -0.691388
    153 H65         2.3930    5.4260    0.8000 hn        1 MOL      0.293495
    154 H66         4.6180    5.0860   -1.0460 h1        1 MOL      0.016192
    155 H67         5.4710    7.1640    0.2810 hc        1 MOL      0.008789
    156 H68         3.9830    7.0150    1.0210 hc        1 MOL      0.008789
    157 H69         2.6640    7.3560   -1.1090 hc        1 MOL      0.024289
    158 H70         4.0920    7.2760   -2.0840 hc        1 MOL      0.024289
    159 N14         6.3150    3.8300    0.5540 n         1 MOL     -0.383193
    160 C53         6.4570    3.2160   -0.7210 c3        1 MOL     -0.055949
    161 C54         7.0240    4.1020   -1.8860 c         1 MOL      0.471584
    162 O24         7.9590    4.9030   -1.6710 o         1 MOL     -0.538181
    163 C55         7.3230    1.8870   -0.5150 c3        1 MOL     -0.144376
    164 C56         6.4090    0.7630    0.0920 c3        1 MOL      0.013099
    165 C57         7.2940   -0.3580    0.6100 c         1 MOL      0.815455
    166 O25         7.6270   -1.2800   -0.1450 o         1 MOL     -0.793575
    167 O26         7.8430   -0.3500    1.7550 o         1 MOL     -0.793575
    168 H71         7.0260    3.5620    1.2280 hn        1 MOL      0.296850
    169 H72         5.4440    2.8980   -1.0040 h1        1 MOL      0.080531
    170 H73         7.9770    2.1670    0.3160 hc        1 MOL      0.046269
    171 H74         7.8260    1.5850   -1.4290 hc        1 MOL      0.046269
    172 H75         5.7210    0.3180   -0.6320 hc        1 MOL     -0.004194
    173 H76         5.8750    1.1450    0.9660 hc        1 MOL     -0.004194
    174 N15         6.3780    3.9610   -3.0390 n         1 MOL     -0.263720
    175 C58         6.6890    4.6660   -4.2930 c3        1 MOL     -0.135338
    176 H77         6.9220    3.9390   -5.0700 h1        1 MOL      0.077193
    177 H78         5.8280    5.2610   -4.5990 h1        1 MOL      0.077193
    178 H79         7.5480    5.3200   -4.1390 h1        1 MOL      0.077193
    179 H80         5.6220    3.2990   -3.1070 hn        1 MOL      0.260952
    180 Ca1         8.1490   -3.6020    1.2290 Ca        1 MOL      1.739845
    181 O27         7.8260   -3.7470    3.7680 oh        1 MOL     -0.858785
    182 H81         8.4010   -3.6180    4.5230 ho        1 MOL      0.412027
    183 H82         6.9500   -3.6470    4.1270 ho        1 MOL      0.412027
    184 O28        10.4330   -3.2770    2.5450 oh        1 MOL     -0.858785
    185 H83        10.8290   -3.8440    3.2100 ho        1 MOL      0.412027
    186 H84        10.8190   -2.4200    2.6870 ho        1 MOL      0.412027
    187 O29        10.2070   -3.3050   -0.3680 oh        1 MOL     -0.858785
    188 H85        10.3960   -2.8200   -1.1710 ho        1 MOL      0.412027
    189 H86        11.0740   -3.5940   -0.0600 ho        1 MOL      0.412027
    190 O30         9.1660   -6.1850    1.0070 oh        1 MOL     -0.858785
    191 H87         9.3030   -7.0080    1.4740 ho        1 MOL      0.412027
    192 H88         9.7580   -6.2340    0.2570 ho        1 MOL      0.412027
@<TRIPOS>BOND
     1    1    2 1   
     2    1    4 1   
     3    1    5 1   
     4    1    6 1   
     5    2    3 2   
     6    2    7 1   
     7    7    8 1   
     8    7   15 1   
     9    8    9 1   
    10    8   11 1   
    11    8   16 1   
    12    9   10 2   
    13    9   19 1   
    14   11   12 1   
    15   11   17 1   
    16   11   18 1   
    17   12   13 1   
    18   12   14 1   
    19   19   20 1   
    20   19   27 1   
    21   20   21 1   
    22   20   23 1   
    23   20   28 1   
    24   21   22 2   
    25   21   38 1   
    26   23   24 1   
    27   23   25 1   
    28   23   29 1   
    29   24   26 1   
    30   24   30 1   
    31   24   31 1   
    32   25   32 1   
    33   25   33 1   
    34   25   34 1   
    35   26   35 1   
    36   26   36 1   
    37   26   37 1   
    38   38   39 1   
    39   38   46 1   
    40   39   40 1   
    41   39   42 1   
    42   39   47 1   
    43   40   41 2   
    44   40   50 1   
    45   42   43 1   
    46   42   48 1   
    47   42   49 1   
    48   43   44 1   
    49   43   45 1   
    50   50   51 1   
    51   50   54 1   
    52   51   52 1   
    53   51   55 1   
    54   51   56 1   
    55   52   53 2   
    56   52   57 1   
    57   57   58 1   
    58   57   65 1   
    59   58   59 1   
    60   58   61 1   
    61   58   66 1   
    62   59   60 2   
    63   59   69 1   
    64   61   62 1   
    65   61   67 1   
    66   61   68 1   
    67   62   63 1   
    68   62   64 1   
    69   69   70 1   
    70   69   73 1   
    71   70   71 1   
    72   70   74 1   
    73   70   75 1   
    74   71   72 2   
    75   71   76 1   
    76   76   77 1   
    77   76   85 1   
    78   77   78 1   
    79   77   80 1   
    80   77   86 1   
    81   78   79 2   
    82   78   93 1   
    83   80   81 1   
    84   80   87 1   
    85   80   88 1   
    86   81   82 1   
    87   81   89 1   
    88   81   90 1   
    89   82   83 1   
    90   82   84 2   
    91   83   91 1   
    92   83   92 1   
    93   93   94 1   
    94   93  100 1   
    95   94   95 1   
    96   94   97 1   
    97   94  101 1   
    98   95   96 2   
    99   95  109 1   
   100   97   98 1   
   101   97   99 1   
   102   97  102 1   
   103   98  103 1   
   104   98  104 1   
   105   98  105 1   
   106   99  106 1   
   107   99  107 1   
   108   99  108 1   
   109  109  110 1   
   110  109  117 1   
   111  110  111 1   
   112  110  113 1   
   113  110  118 1   
   114  111  112 2   
   115  111  123 1   
   116  113  114 1   
   117  113  119 1   
   118  113  120 1   
   119  114  115 1   
   120  114  116 2   
   121  115  121 1   
   122  115  122 1   
   123  123  124 1   
   124  123  135 1   
   125  124  125 1   
   126  124  127 1   
   127  124  136 1   
   128  125  126 2   
   129  125  144 1   
   130  127  128 1   
   131  127  137 1   
   132  127  138 1   
   133  128  129 ar  
   134  128  130 ar  
   135  129  131 ar  
   136  129  139 1   
   137  130  132 ar  
   138  130  140 1   
   139  131  133 ar  
   140  131  141 1   
   141  132  133 ar  
   142  132  142 1   
   143  133  134 1   
   144  134  143 1   
   145  144  145 1   
   146  144  153 1   
   147  145  146 1   
   148  145  148 1   
   149  145  154 1   
   150  146  147 2   
   151  146  159 1   
   152  148  149 1   
   153  148  155 1   
   154  148  156 1   
   155  149  150 1   
   156  149  157 1   
   157  149  158 1   
   158  150  151 1   
   159  150  152 1   
   160  159  160 1   
   161  159  168 1   
   162  160  161 1   
   163  160  163 1   
   164  160  169 1   
   165  161  162 2   
   166  161  174 1   
   167  163  164 1   
   168  163  170 1   
   169  163  171 1   
   170  164  165 1   
   171  164  172 1   
   172  164  173 1   
   173  165  166 1   
   174  165  167 1   
   175  174  175 1   
   176  174  179 1   
   177  175  176 1   
   178  175  177 1   
   179  175  178 1   
   180  181  182 1   
   181  181  183 1   
   182  184  185 1   
   183  184  186 1   
   184  187  188 1   
   185  187  189 1   
   186  190  191 1   
   187  190  192 1   
@<TRIPOS>SUBSTRUCTURE
     1 MOL         1 TEMP              0 ****  ****    0 ROOT
