@<TRIPOS>MOLECULE
MOL
  186   183     1     0     0
SMALL
resp


@<TRIPOS>ATOM
      1 C1         -6.4850   -4.6560   -2.6930 c3        1 MOL     -0.312222
      2 C2         -6.5830   -3.3990   -1.7940 c         1 MOL      0.660664
      3 O1         -5.6090   -3.0740   -1.1560 o         1 MOL     -0.462172
      4 H1         -7.1700   -5.4190   -2.3250 hc        1 MOL      0.076256
      5 H2         -6.7520   -4.3920   -3.7160 hc        1 MOL      0.076256
      6 H3         -5.4660   -5.0410   -2.6690 hc        1 MOL      0.076256
      7 N1         -7.6300   -2.5830   -2.0090 n         1 MOL     -0.656135
      8 C3         -7.8250   -1.2670   -1.4820 c3        1 MOL      0.335879
      9 C4         -6.5340   -0.4050   -1.3790 c         1 MOL      0.285714
     10 O2         -5.9060   -0.1530   -0.3420 o         1 MOL     -0.664785
     11 C5         -8.5580   -1.2550   -0.1220 c3        1 MOL     -0.381409
     12 C6         -8.0510   -2.3510    0.8350 c         1 MOL      0.866322
     13 O3         -6.9750   -2.2710    1.4780 o         1 MOL     -0.775126
     14 O4         -8.7890   -3.3720    1.0820 o         1 MOL     -0.775126
     15 H4         -8.4220   -3.0030   -2.4730 hn        1 MOL      0.326431
     16 H5         -8.4330   -0.7600   -2.2270 h1        1 MOL     -0.000392
     17 H6         -9.6310   -1.3210   -0.2980 hc        1 MOL      0.084199
     18 H7         -8.2530   -0.3140    0.3330 hc        1 MOL      0.084199
     19 N2         -6.1530    0.0030   -2.5840 n         1 MOL     -0.305456
     20 C7         -5.1290    0.9940   -2.8900 c3        1 MOL      0.009891
     21 C8         -5.4130    2.3680   -2.2380 c         1 MOL      0.347484
     22 O5         -5.3310    3.3590   -2.9670 o         1 MOL     -0.525532
     23 C9         -3.7010    0.3870   -2.6570 c3        1 MOL      0.129742
     24 C10        -2.5340    1.4260   -2.8440 c3        1 MOL     -0.032852
     25 C11        -3.3390   -0.8130   -3.4850 c3        1 MOL     -0.247849
     26 C12        -2.3080    1.8540   -4.3190 c3        1 MOL     -0.180279
     27 H8         -6.7690   -0.3610   -3.2960 hn        1 MOL      0.242288
     28 H9         -5.2190    1.0650   -3.9780 h1        1 MOL      0.075686
     29 H10        -3.7320    0.1970   -1.5870 hc        1 MOL      0.059213
     30 H11        -1.6240    1.0250   -2.4010 hc        1 MOL      0.073870
     31 H12        -2.8010    2.3300   -2.2890 hc        1 MOL      0.073870
     32 H13        -2.3260   -1.1040   -3.2440 hc        1 MOL      0.052873
     33 H14        -4.0400   -1.6440   -3.3790 hc        1 MOL      0.052873
     34 H15        -3.3440   -0.6410   -4.5630 hc        1 MOL      0.052873
     35 H16        -1.7630    1.0910   -4.8730 hc        1 MOL      0.027454
     36 H17        -3.2900    1.9730   -4.7790 hc        1 MOL      0.027454
     37 H18        -1.6830    2.7470   -4.3180 hc        1 MOL      0.027454
     38 N3         -5.8730    2.4770   -0.9640 n         1 MOL     -0.246814
     39 C13        -6.2780    3.8010   -0.4770 c3        1 MOL      0.075070
     40 C14        -5.1330    4.8980   -0.5400 c         1 MOL      0.652052
     41 O6         -5.3740    5.9290   -1.0990 o         1 MOL     -0.576567
     42 C15        -6.8690    3.7080    0.9500 c3        1 MOL     -0.320956
     43 C16        -7.3130    5.1130    1.4390 c         1 MOL      0.680462
     44 O7         -8.2660    5.6490    0.8160 o         1 MOL     -0.699270
     45 O8         -6.6700    5.7020    2.3610 o         1 MOL     -0.699270
     46 H19        -5.9500    1.6640   -0.3750 hn        1 MOL      0.323581
     47 H20        -7.1470    4.1150   -1.0590 h1        1 MOL      0.046453
     48 H21        -6.1160    3.4260    1.6870 hc        1 MOL      0.083301
     49 H22        -7.7790    3.1190    1.0130 hc        1 MOL      0.083301
     50 N4         -3.8740    4.7280   -0.1390 n         1 MOL     -0.505261
     51 C17        -3.3170    3.6780    0.6770 c3        1 MOL      0.311877
     52 C18        -2.3040    4.2090    1.6860 c         1 MOL      0.573804
     53 O9         -2.0500    5.4340    1.8800 o         1 MOL     -0.576093
     54 H23        -3.2400    5.4300   -0.4730 hn        1 MOL      0.267967
     55 H24        -2.7800    2.9610    0.0450 h1        1 MOL     -0.067683
     56 H25        -4.0500    3.1860    1.3060 h1        1 MOL     -0.067683
     57 N5         -1.7330    3.3060    2.5340 n         1 MOL     -0.480016
     58 C19        -2.1460    1.8260    2.8380 c3        1 MOL      0.098633
     59 C20        -1.9790    0.9350    1.6210 c         1 MOL      0.591722
     60 O10        -2.9270    0.3940    1.0420 o         1 MOL     -0.666740
     61 C21        -3.4280    1.6970    3.7090 c3        1 MOL     -0.202444
     62 C22        -4.0110    0.3150    3.9810 c         1 MOL      0.735261
     63 O11        -3.5470   -0.3160    4.9560 o         1 MOL     -0.710931
     64 O12        -4.7610   -0.2480    3.1400 o         1 MOL     -0.710931
     65 H26        -1.0220    3.6890    3.1460 hn        1 MOL      0.253317
     66 H27        -1.4340    1.3440    3.5010 h1        1 MOL      0.083064
     67 H28        -4.2160    2.2780    3.2280 hc        1 MOL      0.047243
     68 H29        -3.2460    2.2010    4.6550 hc        1 MOL      0.047243
     69 N6         -0.7520    0.7420    1.0570 n         1 MOL     -0.288915
     70 C23         0.4920    1.2890    1.4880 c3        1 MOL     -0.147237
     71 C24         0.7980    2.5380    0.6260 c         1 MOL      0.432309
     72 O13         0.0290    3.0220   -0.1550 o         1 MOL     -0.452643
     73 H30        -0.6800    0.1300    0.2470 hn        1 MOL      0.132074
     74 H31         1.2810    0.5440    1.3250 h1        1 MOL      0.096008
     75 H32         0.4750    1.5610    2.5350 h1        1 MOL      0.096008
     76 N7          2.0330    3.0300    0.9150 n         1 MOL     -0.395153
     77 C25         2.7590    4.1390    0.3610 c3        1 MOL     -0.033519
     78 C26         3.2730    3.8370   -1.0220 c         1 MOL      0.413307
     79 O14         3.3720    4.7840   -1.7910 o         1 MOL     -0.485464
     80 C27         3.7810    4.6940    1.3470 c3        1 MOL      0.092956
     81 C28         4.4270    6.0280    0.8990 c3        1 MOL     -0.321674
     82 C29         5.5160    6.4970    1.8010 c         1 MOL      0.735146
     83 N8          5.1260    7.1960    2.7990 n         1 MOL     -0.800894
     84 O15         6.6660    6.2610    1.5750 o         1 MOL     -0.596594
     85 H33         2.4540    2.4220    1.5990 hn        1 MOL      0.235492
     86 H34         1.9740    4.8930    0.3080 h1        1 MOL      0.151850
     87 H35         4.5650    3.9580    1.5180 hc        1 MOL      0.000324
     88 H36         3.3710    4.7520    2.3480 hc        1 MOL      0.000324
     89 H37         3.6520    6.7870    0.8190 hc        1 MOL      0.098307
     90 H38         4.8600    5.9700   -0.1020 hc        1 MOL      0.098307
     91 H39         4.1470    7.3500    2.9700 hn        1 MOL      0.361817
     92 H40         5.8140    7.5840    3.4340 hn        1 MOL      0.361817
     93 N9          3.5070    2.5390   -1.4870 n         1 MOL     -0.258444
     94 C30         3.9040    2.1820   -2.8440 c3        1 MOL     -0.211315
     95 C31         5.0950    1.2400   -2.8830 c         1 MOL      0.590491
     96 O16         5.4470    0.7940   -3.9850 o         1 MOL     -0.532071
     97 C32         2.6300    1.6170   -3.5010 c3        1 MOL      0.140349
     98 C33         1.7050    2.7680   -3.7720 c3        1 MOL     -0.263745
     99 C34         1.8770    0.4670   -2.7820 c3        1 MOL     -0.263745
    100 H41         3.3230    1.7810   -0.8560 hn        1 MOL      0.190481
    101 H42         4.1150    3.0920   -3.4150 h1        1 MOL      0.170046
    102 H43         2.9090    1.1300   -4.4370 hc        1 MOL      0.012863
    103 H44         2.3130    3.5770   -4.1870 hc        1 MOL      0.080436
    104 H45         0.8290    2.4840   -4.3610 hc        1 MOL      0.080436
    105 H46         1.3220    3.0870   -2.8040 hc        1 MOL      0.080436
    106 H47         0.9970    0.1800   -3.3580 hc        1 MOL      0.080436
    107 H48         2.5400   -0.3920   -2.6080 hc        1 MOL      0.080436
    108 H49         1.4850    0.7740   -1.8120 hc        1 MOL      0.080436
    109 N10         5.7120    0.9770   -1.7560 n         1 MOL     -0.414936
    110 C35         6.9440    0.2130   -1.7710 c3        1 MOL      0.073121
    111 C36         6.8480   -1.1970   -1.1940 c         1 MOL      0.612200
    112 O17         7.6650   -2.0520   -1.5280 o         1 MOL     -0.551060
    113 C37         8.0090    1.0320   -1.1090 c3        1 MOL     -0.249167
    114 C38         8.0020    2.4570   -1.5970 c         1 MOL      0.642170
    115 N11         7.7640    3.3310   -0.6660 n         1 MOL     -0.767911
    116 O18         8.4490    2.8300   -2.6720 o         1 MOL     -0.552147
    117 H50         5.3970    1.4080   -0.9040 hn        1 MOL      0.237354
    118 H51         7.3040   -0.0280   -2.7700 h1        1 MOL      0.064729
    119 H52         9.0090    0.6060   -1.2390 hc        1 MOL      0.101666
    120 H53         7.8040    1.0270   -0.0410 hc        1 MOL      0.101666
    121 H54         7.5500    2.9870    0.2520 hn        1 MOL      0.363788
    122 H55         8.0540    4.2820   -0.8600 hn        1 MOL      0.363788
    123 N12         5.8870   -1.4230   -0.2980 n         1 MOL     -0.592865
    124 C39         5.6290   -2.6810    0.5020 c3        1 MOL      0.345070
    125 C40         4.1210   -2.9480    0.7010 c         1 MOL      0.468875
    126 O19         3.2970   -2.0520    0.4330 o         1 MOL     -0.476219
    127 C41         6.4210   -2.6140    1.8200 c3        1 MOL     -0.054475
    128 C42         7.8630   -2.0150    1.9100 ca        1 MOL     -0.043307
    129 C43         8.9320   -2.6770    1.3040 ca        1 MOL     -0.148574
    130 C44         8.0450   -0.6380    2.3280 ca        1 MOL     -0.148574
    131 C45        10.1990   -2.0950    1.2180 ca        1 MOL     -0.212560
    132 C46         9.2910    0.0080    2.1170 ca        1 MOL     -0.212560
    133 C47        10.3760   -0.8020    1.7020 ca        1 MOL      0.279996
    134 O20        11.6310   -0.2290    1.6100 oh        1 MOL     -0.534901
    135 H56         5.2760   -0.6310   -0.1710 hn        1 MOL      0.266700
    136 H57         5.9730   -3.5410   -0.0710 h1        1 MOL      0.006321
    137 H58         6.4700   -3.5770    2.3400 hc        1 MOL      0.032630
    138 H59         5.7720   -1.9850    2.4350 hc        1 MOL      0.032630
    139 H60         8.8000   -3.7050    0.9840 ha        1 MOL      0.127446
    140 H61         7.2080   -0.1460    2.8080 ha        1 MOL      0.127446
    141 H62        11.0180   -2.6080    0.7430 ha        1 MOL      0.128548
    142 H63         9.4940    0.9750    2.5490 ha        1 MOL      0.128548
    143 H64        12.3540   -0.8400    1.4940 ho        1 MOL      0.386699
    144 N13         3.9090   -4.2100    1.1370 n         1 MOL     -0.758989
    145 C48         2.6270   -4.9870    1.3410 c3        1 MOL      0.457140
    146 C49         1.6160   -5.0160    0.1530 c         1 MOL      0.087847
    147 O21         0.9060   -6.0320    0.0470 o         1 MOL     -0.456692
    148 C50         1.9760   -4.4480    2.6000 c3        1 MOL     -0.167923
    149 C51         0.6310   -5.1310    2.8990 c3        1 MOL     -0.299185
    150 C52         0.0590   -4.8610    4.2940 c         1 MOL      0.769656
    151 O22        -0.0860   -5.8610    4.9610 o         1 MOL     -0.741506
    152 O23        -0.2560   -3.7360    4.6990 o         1 MOL     -0.741506
    153 H65         4.7070   -4.7930    1.3640 hn        1 MOL      0.339281
    154 H66         2.8650   -6.0420    1.4320 h1        1 MOL      0.018495
    155 H67         1.7910   -3.3790    2.5990 hc        1 MOL      0.060869
    156 H68         2.7330   -4.6730    3.3570 hc        1 MOL      0.060869
    157 H69         0.7840   -6.2080    2.8340 hc        1 MOL      0.082024
    158 H70        -0.1260   -4.8410    2.1760 hc        1 MOL      0.082024
    159 N14         1.6090   -4.0470   -0.7850 n         1 MOL     -0.114378
    160 C53         0.5030   -4.0610   -1.7290 c3        1 MOL     -0.339038
    161 C54         0.7500   -5.0170   -2.9310 c         1 MOL      0.565949
    162 O24        -0.1610   -5.3760   -3.6070 o         1 MOL     -0.520750
    163 C55         0.1780   -2.6100   -2.0870 c3        1 MOL     -0.185362
    164 C56        -0.3640   -1.7890   -0.9210 c3        1 MOL      0.290538
    165 C57        -1.6120   -2.3270   -0.2570 c         1 MOL      0.969532
    166 O25        -1.7460   -2.3770    0.9930 o         1 MOL     -0.800445
    167 O26        -2.5940   -2.6050   -0.9280 o         1 MOL     -0.800445
    168 H71         2.1880   -3.2400   -0.5950 hn        1 MOL      0.206796
    169 H72        -0.3410   -4.5380   -1.2350 h1        1 MOL      0.237107
    170 H73        -0.5480   -2.6590   -2.9000 hc        1 MOL      0.043388
    171 H74         0.9650   -2.0590   -2.5940 hc        1 MOL      0.043388
    172 H75        -0.6010   -0.7980   -1.3180 hc        1 MOL     -0.075133
    173 H76         0.3670   -1.5810   -0.1370 hc        1 MOL     -0.075133
    174 N15         1.9930   -5.4690   -3.1420 n         1 MOL     -0.188934
    175 C58         2.3510   -6.4700   -4.1010 c3        1 MOL     -0.192918
    176 H77         1.6300   -7.2870   -4.0590 h1        1 MOL      0.075135
    177 H78         2.3480   -6.0350   -5.1010 h1        1 MOL      0.075135
    178 H79         3.3460   -6.8520   -3.8740 h1        1 MOL      0.075135
    179 H80         2.7930   -5.0160   -2.7440 hn        1 MOL      0.201495
    180 Ca1        -4.3790   -1.8610    1.1560 Ca        1 MOL      1.798495
    181 O27        -4.6440   -4.6320    1.5050 oh        1 MOL     -0.912178
    182 H81        -5.5480   -4.9090    1.3630 ho        1 MOL      0.434805
    183 H82        -4.4070   -4.9870    2.3630 ho        1 MOL      0.434805
    184 O28        -3.3080   -2.8920    3.4420 oh        1 MOL     -0.912178
    185 H83        -3.0990   -2.3290    4.1810 ho        1 MOL      0.434805
    186 H84        -2.6530   -3.5910    3.4690 ho        1 MOL      0.434805
@<TRIPOS>BOND
     1    1    2 1   
     2    1    4 1   
     3    1    5 1   
     4    1    6 1   
     5    2    3 2   
     6    2    7 1   
     7    7    8 1   
     8    7   15 1   
     9    8    9 1   
    10    8   11 1   
    11    8   16 1   
    12    9   10 2   
    13    9   19 1   
    14   11   12 1   
    15   11   17 1   
    16   11   18 1   
    17   12   13 1   
    18   12   14 1   
    19   19   20 1   
    20   19   27 1   
    21   20   21 1   
    22   20   23 1   
    23   20   28 1   
    24   21   22 2   
    25   21   38 1   
    26   23   24 1   
    27   23   25 1   
    28   23   29 1   
    29   24   26 1   
    30   24   30 1   
    31   24   31 1   
    32   25   32 1   
    33   25   33 1   
    34   25   34 1   
    35   26   35 1   
    36   26   36 1   
    37   26   37 1   
    38   38   39 1   
    39   38   46 1   
    40   39   40 1   
    41   39   42 1   
    42   39   47 1   
    43   40   41 2   
    44   40   50 1   
    45   42   43 1   
    46   42   48 1   
    47   42   49 1   
    48   43   44 1   
    49   43   45 1   
    50   50   51 1   
    51   50   54 1   
    52   51   52 1   
    53   51   55 1   
    54   51   56 1   
    55   52   53 2   
    56   52   57 1   
    57   57   58 1   
    58   57   65 1   
    59   58   59 1   
    60   58   61 1   
    61   58   66 1   
    62   59   60 2   
    63   59   69 1   
    64   61   62 1   
    65   61   67 1   
    66   61   68 1   
    67   62   63 1   
    68   62   64 1   
    69   69   70 1   
    70   69   73 1   
    71   70   71 1   
    72   70   74 1   
    73   70   75 1   
    74   71   72 2   
    75   71   76 1   
    76   76   77 1   
    77   76   85 1   
    78   77   78 1   
    79   77   80 1   
    80   77   86 1   
    81   78   79 2   
    82   78   93 1   
    83   80   81 1   
    84   80   87 1   
    85   80   88 1   
    86   81   82 1   
    87   81   89 1   
    88   81   90 1   
    89   82   83 1   
    90   82   84 2   
    91   83   91 1   
    92   83   92 1   
    93   93   94 1   
    94   93  100 1   
    95   94   95 1   
    96   94   97 1   
    97   94  101 1   
    98   95   96 2   
    99   95  109 1   
   100   97   98 1   
   101   97   99 1   
   102   97  102 1   
   103   98  103 1   
   104   98  104 1   
   105   98  105 1   
   106   99  106 1   
   107   99  107 1   
   108   99  108 1   
   109  109  110 1   
   110  109  117 1   
   111  110  111 1   
   112  110  113 1   
   113  110  118 1   
   114  111  112 2   
   115  111  123 1   
   116  113  114 1   
   117  113  119 1   
   118  113  120 1   
   119  114  115 1   
   120  114  116 2   
   121  115  121 1   
   122  115  122 1   
   123  123  124 1   
   124  123  135 1   
   125  124  125 1   
   126  124  127 1   
   127  124  136 1   
   128  125  126 2   
   129  125  144 1   
   130  127  128 1   
   131  127  137 1   
   132  127  138 1   
   133  128  129 ar  
   134  128  130 ar  
   135  129  131 ar  
   136  129  139 1   
   137  130  132 ar  
   138  130  140 1   
   139  131  133 ar  
   140  131  141 1   
   141  132  133 ar  
   142  132  142 1   
   143  133  134 1   
   144  134  143 1   
   145  144  145 1   
   146  144  153 1   
   147  145  146 1   
   148  145  148 1   
   149  145  154 1   
   150  146  147 2   
   151  146  159 1   
   152  148  149 1   
   153  148  155 1   
   154  148  156 1   
   155  149  150 1   
   156  149  157 1   
   157  149  158 1   
   158  150  151 1   
   159  150  152 1   
   160  159  160 1   
   161  159  168 1   
   162  160  161 1   
   163  160  163 1   
   164  160  169 1   
   165  161  162 2   
   166  161  174 1   
   167  163  164 1   
   168  163  170 1   
   169  163  171 1   
   170  164  165 1   
   171  164  172 1   
   172  164  173 1   
   173  165  166 1   
   174  165  167 1   
   175  174  175 1   
   176  174  179 1   
   177  175  176 1   
   178  175  177 1   
   179  175  178 1   
   180  181  182 1   
   181  181  183 1   
   182  184  185 1   
   183  184  186 1   
@<TRIPOS>SUBSTRUCTURE
     1 MOL         1 TEMP              0 ****  ****    0 ROOT
