@<TRIPOS>MOLECULE
MOL
  182   178     1     0     0
SMALL
resp


@<TRIPOS>ATOM
      1 C1          0.6830   -4.3270    5.7730 c3        1 MOL     -0.396406
      2 C2          0.7220   -3.7860    4.3630 c         1 MOL      0.739786
      3 O1         -0.2080   -3.4080    3.6620 o         1 MOL     -0.615442
      4 H1          1.2600   -5.2500    5.8230 hc        1 MOL      0.121604
      5 H2          1.1110   -3.5930    6.4570 hc        1 MOL      0.121604
      6 H3         -0.3510   -4.5300    6.0570 hc        1 MOL      0.121604
      7 N1          1.8610   -3.8610    3.7460 n         1 MOL     -0.534751
      8 C3          2.1830   -3.3730    2.4160 c3        1 MOL      0.036588
      9 C4          2.4600   -4.5120    1.3440 c         1 MOL      0.530595
     10 O2          3.0790   -5.5190    1.7650 o         1 MOL     -0.526019
     11 C5          3.3650   -2.4160    2.5290 c3        1 MOL     -0.309474
     12 C6          3.6500   -1.5040    1.3030 c         1 MOL      0.535192
     13 O3          4.2520   -0.4620    1.4590 o         1 MOL     -0.622953
     14 O4          3.2430   -1.8480    0.1690 o         1 MOL     -0.622953
     15 H4          2.6510   -4.2480    4.2510 hn        1 MOL      0.288194
     16 H5          1.3030   -2.7960    2.1440 h1        1 MOL      0.134023
     17 H6          4.2420   -3.0410    2.6950 hc        1 MOL      0.119501
     18 H7          3.1420   -1.7650    3.3700 hc        1 MOL      0.119501
     19 N2          2.0290   -4.2980    0.0790 n         1 MOL     -0.334910
     20 C7          2.1350   -5.1980   -1.0850 c3        1 MOL     -0.311771
     21 C8          3.4230   -5.1000   -1.9250 c         1 MOL      0.637747
     22 O5          3.7760   -5.9460   -2.7320 o         1 MOL     -0.563325
     23 C9          0.9120   -5.0300   -1.9970 c3        1 MOL      0.033108
     24 C10        -0.4180   -5.6210   -1.4230 c3        1 MOL      0.099948
     25 C11        -1.5340   -5.5560   -2.4350 c3        1 MOL     -0.005333
     26 C12        -2.5650   -6.6750   -2.0420 c3        1 MOL     -0.025384
     27 N3         -3.6940   -6.7190   -2.9720 n4        1 MOL     -0.098973
     28 H8          1.7910   -3.3410   -0.1460 hn        1 MOL      0.325102
     29 H9          2.1790   -6.1920   -0.6430 h1        1 MOL      0.158839
     30 H10         1.1080   -5.5930   -2.9130 hc        1 MOL      0.007573
     31 H11         0.8020   -3.9760   -2.2440 hc        1 MOL      0.007573
     32 H12        -0.8560   -5.0760   -0.5840 hc        1 MOL      0.006097
     33 H13        -0.2930   -6.6440   -1.0570 hc        1 MOL      0.006097
     34 H14        -1.1120   -5.6230   -3.4340 hc        1 MOL      0.015020
     35 H15        -1.9900   -4.5860   -2.2410 hc        1 MOL      0.015020
     36 H16        -2.9460   -6.4880   -1.0440 hx        1 MOL      0.089230
     37 H17        -1.9340   -7.5630   -2.0480 hx        1 MOL      0.089230
     38 H18        -3.4030   -6.5760   -3.9340 hn        1 MOL      0.215732
     39 H19        -4.0780   -7.6500   -3.0140 hn        1 MOL      0.215732
     40 H20        -4.4340   -6.0390   -2.8980 hn        1 MOL      0.215732
     41 N4          4.1920   -4.0330   -1.6550 n         1 MOL     -0.481995
     42 C13         5.4880   -3.7850   -2.2720 c3        1 MOL      0.264450
     43 C14         6.5360   -3.3050   -1.2440 c         1 MOL      0.251659
     44 O6          7.7390   -3.4980   -1.4410 o         1 MOL     -0.498073
     45 C15         5.4190   -2.7200   -3.4060 c3        1 MOL     -0.491043
     46 C16         4.5100   -1.5450   -2.9930 c         1 MOL      0.955290
     47 O7          4.9570   -0.7580   -2.1600 o         1 MOL     -0.769462
     48 O8          3.4360   -1.3760   -3.5320 o         1 MOL     -0.769462
     49 H21         3.7530   -3.3550   -1.0410 hn        1 MOL      0.309064
     50 H22         5.8820   -4.7160   -2.6860 h1        1 MOL      0.089109
     51 H23         4.9160   -3.1560   -4.2690 hc        1 MOL      0.125426
     52 H24         6.4410   -2.4110   -3.5990 hc        1 MOL      0.125426
     53 N5          6.1150   -2.6860   -0.1360 n         1 MOL      0.032690
     54 C17         6.9250   -2.3450    0.9260 c3        1 MOL      0.021328
     55 C18         7.2740   -0.7930    1.0250 c         1 MOL      0.546978
     56 O9          7.9980   -0.4050    1.9560 o         1 MOL     -0.559228
     57 H25         5.1340   -2.4480   -0.1490 hn        1 MOL     -0.063502
     58 H26         7.8240   -2.9370    1.0560 h1        1 MOL      0.047275
     59 H27         6.3530   -2.5720    1.8240 h1        1 MOL      0.047275
     60 N6          6.8720    0.0970    0.0900 n         1 MOL     -0.375117
     61 C19         7.2530    1.5210    0.1160 c3        1 MOL      0.238486
     62 C20         5.9840    2.4190   -0.1100 c         1 MOL      0.502750
     63 O10         4.8180    2.0350   -0.4860 o         1 MOL     -0.578112
     64 C21         8.3640    1.7170   -0.9370 c3        1 MOL     -0.281105
     65 C22         9.7880    1.2770   -0.6440 c         1 MOL      0.654856
     66 N7         10.5590    2.0820    0.0290 n         1 MOL     -0.747091
     67 O11        10.1860    0.1940   -1.0760 o         1 MOL     -0.530004
     68 H28         6.1370   -0.2340   -0.5250 hn        1 MOL      0.254751
     69 H29         7.7450    1.8940    1.0090 h1        1 MOL     -0.003083
     70 H30         8.4570    2.7760   -1.1900 hc        1 MOL      0.050794
     71 H31         7.9740    1.1850   -1.8100 hc        1 MOL      0.050794
     72 H32        10.1720    2.9730    0.2950 hn        1 MOL      0.358100
     73 H33        11.5220    1.7950    0.1650 hn        1 MOL      0.358100
     74 N8          6.2360    3.7270    0.0840 n         1 MOL     -0.350264
     75 C23         5.2770    4.8820   -0.2480 c3        1 MOL     -0.205989
     76 C24         3.9910    4.7970    0.6130 c         1 MOL      0.596934
     77 O12         4.1570    4.4440    1.8140 o         1 MOL     -0.501021
     78 H34         7.1330    3.9340    0.4910 hn        1 MOL      0.295953
     79 H35         4.9180    4.8100   -1.2790 h1        1 MOL      0.114158
     80 H36         5.7100    5.8620   -0.0730 h1        1 MOL      0.114158
     81 N9          2.7630    4.9220    0.0580 n         1 MOL     -0.559550
     82 C25         1.5380    4.6390    0.8140 c3        1 MOL     -0.037458
     83 C26         1.3480    3.1110    1.1170 c         1 MOL      0.793514
     84 O13         2.2210    2.3280    0.8000 o         1 MOL     -0.495062
     85 C27         0.3430    5.0790   -0.0450 c3        1 MOL     -0.147454
     86 C28         0.3510    6.5690   -0.4720 ca        1 MOL      0.200398
     87 C29         1.0360    7.5390    0.3200 ca        1 MOL     -0.272673
     88 C30        -0.1900    6.9480   -1.6930 ca        1 MOL     -0.272673
     89 C31         1.0050    8.9290   -0.0570 ca        1 MOL     -0.185083
     90 C32        -0.1690    8.3260   -2.1340 ca        1 MOL     -0.185083
     91 C33         0.4700    9.3220   -1.3150 ca        1 MOL      0.259532
     92 O14         0.3570   10.6640   -1.6940 oh        1 MOL     -0.476929
     93 H37         2.6950    5.0080   -0.9410 hn        1 MOL      0.330205
     94 H38         1.6430    5.2370    1.7250 h1        1 MOL      0.108906
     95 H39        -0.6240    4.9550    0.4470 hc        1 MOL      0.042728
     96 H40         0.2950    4.4290   -0.9160 hc        1 MOL      0.042728
     97 H41         1.5250    7.1850    1.2140 ha        1 MOL      0.165549
     98 H42        -0.7790    6.2540   -2.2770 ha        1 MOL      0.165549
     99 H43         1.4350    9.6240    0.6520 ha        1 MOL      0.151413
    100 H44        -0.6440    8.6800   -3.0390 ha        1 MOL      0.151413
    101 H45         0.5400   11.2590   -0.9600 ho        1 MOL      0.373255
    102 N10         0.3030    2.7520    1.9170 n         1 MOL     -0.803529
    103 C34         0.0740    1.4900    2.5450 c3        1 MOL      0.134184
    104 C35        -0.2210    0.4270    1.4980 c         1 MOL      0.474210
    105 O15         0.7200    0.0720    0.7860 o         1 MOL     -0.531891
    106 C36         1.0610    1.0860    3.7180 c3        1 MOL      0.118639
    107 C37         0.5960   -0.3080    4.4090 c3        1 MOL     -0.128963
    108 C38         1.1150    2.2040    4.7730 c3        1 MOL     -0.400052
    109 C39        -0.7280   -0.2840    5.1360 c3        1 MOL     -0.102252
    110 H46        -0.3430    3.4890    2.1460 hn        1 MOL      0.375384
    111 H47        -0.8780    1.5980    3.0640 h1        1 MOL      0.037204
    112 H48         1.9980    0.8120    3.2300 hc        1 MOL      0.046892
    113 H49         1.3200   -0.6700    5.1440 hc        1 MOL      0.068684
    114 H50         0.5090   -1.0270    3.5990 hc        1 MOL      0.068684
    115 H51         0.1540    2.6450    5.0460 hc        1 MOL      0.118461
    116 H52         1.6030    1.8440    5.6760 hc        1 MOL      0.118461
    117 H53         1.7860    2.9620    4.3770 hc        1 MOL      0.118461
    118 H54        -1.0570   -1.2850    5.4140 hc        1 MOL      0.021099
    119 H55        -0.6320    0.3170    6.0370 hc        1 MOL      0.021099
    120 H56        -1.5180    0.0130    4.4380 hc        1 MOL      0.021099
    121 N11        -1.4660   -0.0510    1.3680 n         1 MOL     -0.233963
    122 C40        -1.8190   -0.9520    0.2460 c3        1 MOL     -0.292172
    123 C41        -3.2600   -0.9710   -0.1550 c         1 MOL      0.544563
    124 O16        -3.6720   -1.8120   -0.9000 o         1 MOL     -0.519671
    125 C42        -1.2850   -2.4110    0.5240 c3        1 MOL      0.481285
    126 O17        -1.9590   -2.9530    1.6600 oh        1 MOL     -0.631823
    127 H57        -2.1480    0.3760    1.9890 hn        1 MOL      0.278238
    128 H58        -1.2460   -0.5800   -0.6010 h1        1 MOL      0.123250
    129 H59        -0.2340   -2.3980    0.7850 h1        1 MOL     -0.097877
    130 H60        -1.3460   -3.1460   -0.2840 h1        1 MOL     -0.097877
    131 H61        -1.2940   -3.0950    2.3480 ho        1 MOL      0.389009
    132 N12        -4.0910   -0.1320    0.3970 n         1 MOL     -0.300507
    133 C43        -5.4200    0.1520   -0.0200 c3        1 MOL      0.039026
    134 C44        -5.5230    0.9160   -1.3600 c         1 MOL      0.635974
    135 O18        -4.5880    1.5800   -1.7660 o         1 MOL     -0.583735
    136 C45        -6.0560    0.8000    1.1910 c3        1 MOL     -0.296241
    137 H62        -3.7050    0.5580    1.0260 hn        1 MOL      0.173113
    138 H63        -5.9930   -0.7690   -0.1280 h1        1 MOL      0.123061
    139 H64        -5.5760    1.7570    1.4150 hc        1 MOL      0.099471
    140 H65        -7.0460    1.1400    0.8960 hc        1 MOL      0.099471
    141 H66        -6.1190    0.1690    2.0780 hc        1 MOL      0.099471
    142 N13        -6.5990    0.7700   -2.1380 n         1 MOL     -0.633106
    143 C46        -7.8100    0.0360   -1.8710 c3        1 MOL      0.380590
    144 C47        -9.0470    0.7230   -2.4550 c         1 MOL      0.428228
    145 O19        -8.9930    1.2730   -3.5560 o         1 MOL     -0.520544
    146 C48        -7.6230   -1.3770   -2.5060 c3        1 MOL     -0.209411
    147 H67        -6.5620    1.3320   -2.9760 hn        1 MOL      0.325210
    148 H68        -7.8780    0.0070   -0.7800 h1        1 MOL     -0.075158
    149 H69        -6.7050   -1.7750   -2.0730 hc        1 MOL      0.062500
    150 H70        -8.4400   -2.0230   -2.1650 hc        1 MOL      0.062500
    151 H71        -7.6760   -1.4180   -3.5920 hc        1 MOL      0.062500
    152 N14       -10.2420    0.6660   -1.8110 n         1 MOL     -0.498721
    153 C49       -10.6050    0.1720   -0.4390 c3        1 MOL      0.016263
    154 C50       -10.1450    1.1050    0.6880 c         1 MOL      0.452518
    155 O20        -9.6780    0.6930    1.7720 o         1 MOL     -0.546419
    156 C51       -12.1010   -0.1330   -0.3590 c3        1 MOL     -0.052553
    157 C52       -12.4320   -0.8400    0.9910 c3        1 MOL     -0.160311
    158 C53       -13.8560   -1.3600    0.9410 c         1 MOL      0.659672
    159 O21       -14.0700   -2.5670    0.7350 o         1 MOL     -0.660451
    160 O22       -14.7530   -0.4760    0.9490 o         1 MOL     -0.660451
    161 H72       -11.0200    0.9720   -2.3580 hn        1 MOL      0.309275
    162 H73       -10.0630   -0.7600   -0.2620 h1        1 MOL      0.090357
    163 H74       -12.1420   -0.8880   -1.1430 hc        1 MOL      0.054314
    164 H75       -12.7220    0.7450   -0.5060 hc        1 MOL      0.054314
    165 H76       -12.3370   -0.1300    1.8200 hc        1 MOL      0.036598
    166 H77       -11.7380   -1.6220    1.2930 hc        1 MOL      0.036598
    167 N15       -10.0800    2.3750    0.4420 n         1 MOL     -0.214062
    168 C54        -9.3370    3.4140    1.2250 c3        1 MOL     -0.229685
    169 H78        -8.2670    3.3040    1.0510 h1        1 MOL      0.108095
    170 H79        -9.6560    4.4070    0.9050 h1        1 MOL      0.108095
    171 H80        -9.5470    3.2890    2.2870 h1        1 MOL      0.108095
    172 H81       -10.7000    2.7020   -0.2850 hn        1 MOL      0.237677
    173 Ca1         2.9110    0.4760   -0.9800 Ca        1 MOL      1.733845
    174 O23         0.6440    1.6910   -1.7830 oh        1 MOL     -0.878791
    175 H82         0.7780    2.3210   -2.4840 ho        1 MOL      0.428218
    176 H83        -0.2990    1.4960   -1.8090 ho        1 MOL      0.428218
    177 O24         1.0880   -1.0660   -2.3470 oh        1 MOL     -0.878791
    178 H84         0.3010   -0.8110   -2.8430 ho        1 MOL      0.428218
    179 H85         1.6490   -1.4840   -3.0060 ho        1 MOL      0.428218
    180 O25         3.1780    1.7540   -3.3270 oh        1 MOL     -0.878791
    181 H86         2.7200    2.4580   -3.7990 ho        1 MOL      0.428218
    182 H87         3.9830    1.6200   -3.8250 ho        1 MOL      0.428218
@<TRIPOS>BOND
     1    1    2 1   
     2    1    4 1   
     3    1    5 1   
     4    1    6 1   
     5    2    3 2   
     6    2    7 1   
     7    7    8 1   
     8    7   15 1   
     9    8    9 1   
    10    8   11 1   
    11    8   16 1   
    12    9   10 2   
    13    9   19 1   
    14   11   12 1   
    15   11   17 1   
    16   11   18 1   
    17   12   13 1   
    18   12   14 1   
    19   19   20 1   
    20   19   28 1   
    21   20   21 1   
    22   20   23 1   
    23   20   29 1   
    24   21   22 2   
    25   21   41 1   
    26   23   24 1   
    27   23   30 1   
    28   23   31 1   
    29   24   25 1   
    30   24   32 1   
    31   24   33 1   
    32   25   26 1   
    33   25   34 1   
    34   25   35 1   
    35   26   27 1   
    36   26   36 1   
    37   26   37 1   
    38   27   38 1   
    39   27   39 1   
    40   27   40 1   
    41   41   42 1   
    42   41   49 1   
    43   42   43 1   
    44   42   45 1   
    45   42   50 1   
    46   43   44 2   
    47   43   53 1   
    48   45   46 1   
    49   45   51 1   
    50   45   52 1   
    51   46   47 1   
    52   46   48 1   
    53   53   54 1   
    54   53   57 1   
    55   54   55 1   
    56   54   58 1   
    57   54   59 1   
    58   55   56 2   
    59   55   60 1   
    60   60   61 1   
    61   60   68 1   
    62   61   62 1   
    63   61   64 1   
    64   61   69 1   
    65   62   63 2   
    66   62   74 1   
    67   64   65 1   
    68   64   70 1   
    69   64   71 1   
    70   65   66 1   
    71   65   67 2   
    72   66   72 1   
    73   66   73 1   
    74   74   75 1   
    75   74   78 1   
    76   75   76 1   
    77   75   79 1   
    78   75   80 1   
    79   76   77 2   
    80   76   81 1   
    81   81   82 1   
    82   81   93 1   
    83   82   83 1   
    84   82   85 1   
    85   82   94 1   
    86   83   84 2   
    87   83  102 1   
    88   85   86 1   
    89   85   95 1   
    90   85   96 1   
    91   86   87 ar  
    92   86   88 ar  
    93   87   89 ar  
    94   87   97 1   
    95   88   90 ar  
    96   88   98 1   
    97   89   91 ar  
    98   89   99 1   
    99   90   91 ar  
   100   90  100 1   
   101   91   92 1   
   102   92  101 1   
   103  102  103 1   
   104  102  110 1   
   105  103  104 1   
   106  103  106 1   
   107  103  111 1   
   108  104  105 2   
   109  104  121 1   
   110  106  107 1   
   111  106  108 1   
   112  106  112 1   
   113  107  109 1   
   114  107  113 1   
   115  107  114 1   
   116  108  115 1   
   117  108  116 1   
   118  108  117 1   
   119  109  118 1   
   120  109  119 1   
   121  109  120 1   
   122  121  122 1   
   123  121  127 1   
   124  122  123 1   
   125  122  125 1   
   126  122  128 1   
   127  123  124 2   
   128  123  132 1   
   129  125  126 1   
   130  125  129 1   
   131  125  130 1   
   132  126  131 1   
   133  132  133 1   
   134  132  137 1   
   135  133  134 1   
   136  133  136 1   
   137  133  138 1   
   138  134  135 2   
   139  134  142 1   
   140  136  139 1   
   141  136  140 1   
   142  136  141 1   
   143  142  143 1   
   144  142  147 1   
   145  143  144 1   
   146  143  146 1   
   147  143  148 1   
   148  144  145 2   
   149  144  152 1   
   150  146  149 1   
   151  146  150 1   
   152  146  151 1   
   153  152  153 1   
   154  152  161 1   
   155  153  154 1   
   156  153  156 1   
   157  153  162 1   
   158  154  155 2   
   159  154  167 1   
   160  156  157 1   
   161  156  163 1   
   162  156  164 1   
   163  157  158 1   
   164  157  165 1   
   165  157  166 1   
   166  158  159 1   
   167  158  160 1   
   168  167  168 1   
   169  167  172 1   
   170  168  169 1   
   171  168  170 1   
   172  168  171 1   
   173  174  175 1   
   174  174  176 1   
   175  177  178 1   
   176  177  179 1   
   177  180  181 1   
   178  180  182 1   
@<TRIPOS>SUBSTRUCTURE
     1 MOL         1 TEMP              0 ****  ****    0 ROOT
