@<TRIPOS>MOLECULE
MOL
  181   177     1     0     0
SMALL
resp


@<TRIPOS>ATOM
      1 C1          1.3610    6.1830   -1.9660 c3        1 MOL     -0.365884
      2 C2          2.6820    6.2780   -1.2730 c         1 MOL      0.776515
      3 O1          2.7370    6.6880   -0.1460 o         1 MOL     -0.619960
      4 H1          1.2840    5.2180   -2.4680 hc        1 MOL      0.084797
      5 H2          0.5590    6.2760   -1.2340 hc        1 MOL      0.084797
      6 H3          1.2780    6.9830   -2.7020 hc        1 MOL      0.084797
      7 N1          3.8010    5.7210   -1.8670 n         1 MOL     -0.660684
      8 C3          5.0790    5.5120   -1.1640 c3        1 MOL      0.136423
      9 C4          5.2040    4.3120   -0.2550 c         1 MOL      0.626032
     10 O2          4.9110    3.1800   -0.5670 o         1 MOL     -0.567582
     11 C5          6.1770    5.5250   -2.2000 c3        1 MOL     -0.117567
     12 C6          7.5230    5.6230   -1.5320 c         1 MOL      0.616949
     13 O3          7.9910    4.5380   -1.0810 o         1 MOL     -0.705420
     14 O4          7.9630    6.7720   -1.3180 o         1 MOL     -0.705420
     15 H4          3.6660    5.3050   -2.7730 hn        1 MOL      0.304377
     16 H5          5.2230    6.4130   -0.5660 h1        1 MOL      0.074176
     17 H6          5.9970    6.4980   -2.6500 hc        1 MOL     -0.003130
     18 H7          6.0930    4.7290   -2.9510 hc        1 MOL     -0.003130
     19 N2          5.5290    4.6100    0.9760 n         1 MOL     -0.479997
     20 C7          5.5640    3.7080    2.1160 c3        1 MOL      0.291844
     21 C8          4.1600    2.9860    2.2930 c         1 MOL      0.425964
     22 O5          3.0910    3.5520    2.1980 o         1 MOL     -0.540103
     23 C9          5.9400    4.6000    3.3490 c3        1 MOL     -0.514017
     24 H8          5.7000    5.5790    1.1800 hn        1 MOL      0.287982
     25 H9          6.3330    2.9460    1.9910 h1        1 MOL      0.050167
     26 H10         5.7930    3.9410    4.2080 hc        1 MOL      0.132880
     27 H11         6.9060    5.0930    3.2990 hc        1 MOL      0.132880
     28 H12         5.3350    5.4900    3.4900 hc        1 MOL      0.132880
     29 N3          4.0280    1.7460    2.7030 n         1 MOL     -0.318460
     30 C10         5.1140    0.8930    3.2390 c3        1 MOL      0.001051
     31 C11         5.6700    0.0190    2.1480 c         1 MOL      0.528912
     32 O6          5.1310   -0.0820    1.0230 o         1 MOL     -0.474302
     33 C12         4.5490   -0.0500    4.3800 c3        1 MOL     -0.136557
     34 C13         3.4450   -1.0260    3.9970 c         1 MOL      0.672018
     35 O7          3.4320   -2.0870    4.6260 o         1 MOL     -0.699992
     36 O8          2.5950   -0.6570    3.1550 o         1 MOL     -0.699992
     37 H13         3.1490    1.2790    2.5460 hn        1 MOL      0.259854
     38 H14         5.9440    1.3880    3.7450 h1        1 MOL      0.024760
     39 H15         4.1010    0.6980    5.0320 hc        1 MOL      0.041902
     40 H16         5.3870   -0.5820    4.8400 hc        1 MOL      0.041902
     41 N4          6.7810   -0.6730    2.3720 n         1 MOL     -0.457080
     42 C14         7.4200   -1.5980    1.4070 c3        1 MOL      0.003419
     43 C15         7.7350   -1.0160   -0.0570 c         1 MOL      0.483379
     44 O9          8.3010    0.0680   -0.2430 o         1 MOL     -0.472957
     45 H17         7.1290   -0.4670    3.2960 hn        1 MOL      0.297372
     46 H18         6.7070   -2.3860    1.1650 h1        1 MOL      0.056252
     47 H19         8.3680   -2.0040    1.7740 h1        1 MOL      0.056252
     48 N5          7.4950   -1.7420   -1.1390 n         1 MOL     -0.478768
     49 C16         6.7350   -2.9820   -1.3180 c3        1 MOL      0.130641
     50 C17         5.5280   -2.6920   -2.3310 c         1 MOL      0.498401
     51 O10         5.6350   -1.7370   -3.0910 o         1 MOL     -0.475827
     52 C18         7.6320   -4.1360   -1.8020 c3        1 MOL     -0.377606
     53 C19         8.0520   -4.1420   -3.2540 c         1 MOL      0.707567
     54 N6          7.2760   -4.5180   -4.1790 n         1 MOL     -0.801371
     55 O11         9.1380   -3.6860   -3.6130 o         1 MOL     -0.574660
     56 H20         7.7540   -1.3310   -2.0260 hn        1 MOL      0.342994
     57 H21         6.2390   -3.2680   -0.3820 h1        1 MOL      0.092193
     58 H22         7.1630   -5.0680   -1.4940 hc        1 MOL      0.095035
     59 H23         8.5370   -4.1490   -1.1960 hc        1 MOL      0.095035
     60 H24         6.3600   -4.8890   -3.9910 hn        1 MOL      0.378968
     61 H25         7.5700   -4.2440   -5.1130 hn        1 MOL      0.378968
     62 N7          4.4460   -3.3960   -2.2230 n         1 MOL     -0.306131
     63 C20         3.2480   -3.1620   -3.0120 c3        1 MOL     -0.424905
     64 C21         2.0680   -4.0220   -2.6760 c         1 MOL      0.658720
     65 O12         1.4450   -4.5500   -3.5870 o         1 MOL     -0.563890
     66 H26         4.3130   -4.0300   -1.4500 hn        1 MOL      0.163091
     67 H27         3.4560   -3.3890   -4.0550 h1        1 MOL      0.186579
     68 H28         2.8970   -2.1490   -2.8060 h1        1 MOL      0.186579
     69 N8          1.7750   -4.1780   -1.3550 n         1 MOL     -0.374534
     70 C22         0.5650   -4.7760   -0.8240 c3        1 MOL      0.048431
     71 C23        -0.5440   -3.8020   -0.6030 c         1 MOL      0.417930
     72 O13        -0.3550   -2.8060    0.0200 o         1 MOL     -0.632019
     73 C24         0.7310   -5.5240    0.4490 c3        1 MOL      0.311290
     74 C25        -0.5810   -5.9490    1.0980 c3        1 MOL     -0.357667
     75 O14         1.4620   -6.6750    0.2300 oh        1 MOL     -0.669769
     76 H29         2.3050   -3.5830   -0.7280 hn        1 MOL      0.336930
     77 H30         0.2430   -5.4180   -1.6440 h1        1 MOL      0.069413
     78 H31         1.3000   -4.8830    1.1170 h1        1 MOL     -0.030651
     79 H32         1.4310   -7.1850    1.0500 ho        1 MOL      0.414642
     80 H33        -1.0700   -5.1770    1.7020 hc        1 MOL      0.105378
     81 H34        -1.3030   -6.3680    0.3930 hc        1 MOL      0.105378
     82 H35        -0.2170   -6.6590    1.8370 hc        1 MOL      0.105378
     83 N9         -1.6890   -4.0810   -1.2140 n         1 MOL     -0.367243
     84 C26        -2.8990   -3.2430   -1.0910 c3        1 MOL     -0.022692
     85 C27        -3.6510   -3.4190    0.2230 c         1 MOL      0.234764
     86 O15        -4.0710   -4.5660    0.4980 o         1 MOL     -0.531858
     87 C28        -3.8380   -3.2540   -2.2770 c3        1 MOL      0.078347
     88 C29        -5.0570   -2.3100   -2.0560 c3        1 MOL      0.287401
     89 C30        -3.0670   -2.8300   -3.4770 c3        1 MOL     -0.206106
     90 C31        -6.1810   -2.5520   -3.1260 c3        1 MOL     -0.259892
     91 H36        -1.7160   -4.9200   -1.7630 hn        1 MOL      0.302210
     92 H37        -2.7090   -2.1840   -0.9660 h1        1 MOL      0.307121
     93 H38        -4.1030   -4.3080   -2.3800 hc        1 MOL      0.010883
     94 H39        -4.8020   -1.2530   -2.1480 hc        1 MOL     -0.069917
     95 H40        -5.5680   -2.4440   -1.0990 hc        1 MOL     -0.069917
     96 H41        -3.7040   -2.6910   -4.3490 hc        1 MOL      0.041629
     97 H42        -2.6140   -1.8450   -3.3200 hc        1 MOL      0.041629
     98 H43        -2.2980   -3.5620   -3.7190 hc        1 MOL      0.041629
     99 H44        -6.6470   -3.5160   -2.9350 hc        1 MOL      0.035829
    100 H45        -6.8880   -1.7270   -3.1780 hc        1 MOL      0.035829
    101 H46        -5.6760   -2.5650   -4.1020 hc        1 MOL      0.035829
    102 N10        -3.7150   -2.3570    1.0560 n         1 MOL      0.135960
    103 C32        -4.4720   -2.3200    2.3060 c3        1 MOL      0.002955
    104 C33        -5.6680   -1.4230    2.1970 c         1 MOL      0.391477
    105 O16        -6.6480   -1.5460    2.9070 o         1 MOL     -0.537224
    106 C34        -3.5430   -1.9230    3.4430 c3        1 MOL      0.116782
    107 C35        -2.3640   -2.8650    3.6790 c         1 MOL      0.695440
    108 O17        -1.2650   -2.5760    3.2230 o         1 MOL     -0.712444
    109 O18        -2.4910   -3.7740    4.4470 o         1 MOL     -0.712444
    110 H47        -3.3140   -1.4590    0.8430 hn        1 MOL     -0.195914
    111 H48        -4.8500   -3.3260    2.5120 h1        1 MOL      0.077306
    112 H49        -4.0630   -1.8480    4.3990 hc        1 MOL     -0.040147
    113 H50        -3.1840   -0.9240    3.1700 hc        1 MOL     -0.040147
    114 N11        -5.6250   -0.4500    1.2680 n         1 MOL     -0.385626
    115 C36        -6.6810    0.5740    1.0950 c3        1 MOL      0.226078
    116 C37        -6.1050    1.8710    0.4540 c         1 MOL      0.138506
    117 O19        -6.5620    2.2950   -0.6170 o         1 MOL     -0.435817
    118 C38        -7.7710   -0.1650    0.3290 c3        1 MOL     -0.257188
    119 C39        -9.1350    0.3920    0.1440 ca        1 MOL      0.208434
    120 C40       -10.0250   -0.2020   -0.8230 ca        1 MOL     -0.237786
    121 C41        -9.5900    1.4670    0.8770 ca        1 MOL     -0.237786
    122 C42       -11.2850    0.3780   -1.1420 ca        1 MOL     -0.054794
    123 C43       -10.9060    2.0380    0.5840 ca        1 MOL     -0.054794
    124 C44       -11.7670    1.4640   -0.4190 ca        1 MOL     -0.212045
    125 H51        -4.7140   -0.2970    0.8520 hn        1 MOL      0.201609
    126 H52        -7.0370    0.9040    2.0720 h1        1 MOL      0.041734
    127 H53        -7.9840   -1.1620    0.7140 hc        1 MOL      0.134047
    128 H54        -7.3180   -0.3290   -0.6500 hc        1 MOL      0.134047
    129 H55        -9.6490   -0.9910   -1.4460 ha        1 MOL      0.126011
    130 H56        -8.9490    2.0540    1.5220 ha        1 MOL      0.126011
    131 H57       -11.9810   -0.1030   -1.8070 ha        1 MOL      0.092625
    132 H58       -11.2520    2.8210    1.2410 ha        1 MOL      0.092625
    133 H59       -12.7710    1.7730   -0.6550 ha        1 MOL      0.123982
    134 N12        -5.1330    2.5610    1.0480 n         1 MOL      0.190916
    135 C45        -4.5100    3.8530    0.6430 c3        1 MOL      0.027952
    136 C46        -4.1400    3.8380   -0.8180 c         1 MOL      0.138657
    137 O20        -4.2290    4.8640   -1.4520 o         1 MOL     -0.451953
    138 C47        -3.3100    4.0310    1.5320 c3        1 MOL      0.004102
    139 C48        -3.9260    3.6570    2.8990 c3        1 MOL     -0.146204
    140 C49        -4.7030    2.3800    2.4650 c3        1 MOL     -0.188968
    141 H60        -5.3440    4.5190    0.8620 h1        1 MOL      0.063214
    142 H61        -2.5580    3.3420    1.1520 hc        1 MOL      0.044699
    143 H62        -3.0800    5.0910    1.6350 hc        1 MOL      0.044699
    144 H63        -3.0940    3.5530    3.6040 hc        1 MOL      0.070241
    145 H64        -4.6430    4.4310    3.1430 hc        1 MOL      0.070241
    146 H65        -4.0180    1.5400    2.4720 h1        1 MOL      0.082934
    147 H66        -5.5900    2.2720    3.0960 h1        1 MOL      0.082934
    148 N13        -3.8300    2.6590   -1.3640 n         1 MOL      0.199710
    149 C50        -3.4710    2.4230   -2.7560 c3        1 MOL     -0.462207
    150 C51        -4.6380    2.6680   -3.6810 c         1 MOL      0.535038
    151 O21        -4.5100    3.2970   -4.6950 o         1 MOL     -0.551556
    152 C52        -2.8790    1.0060   -2.9690 c3        1 MOL      0.234966
    153 C53        -1.7490    0.5670   -2.0690 c3        1 MOL     -0.555945
    154 C54        -2.0740    0.2430   -0.5720 c         1 MOL      0.358394
    155 O22        -1.1110   -0.1020    0.1550 o         1 MOL     -0.454033
    156 O23        -3.2250    0.0470   -0.1190 o         1 MOL     -0.454033
    157 H67        -3.8630    1.8360   -0.7850 hn        1 MOL      0.114916
    158 H68        -2.7490    3.1790   -3.0570 h1        1 MOL      0.159399
    159 H69        -2.5530    0.7760   -3.9870 hc        1 MOL      0.009694
    160 H70        -3.7700    0.3650   -2.9530 hc        1 MOL      0.009694
    161 H71        -1.1130    1.4560   -2.0570 hc        1 MOL      0.174023
    162 H72        -1.1750   -0.2530   -2.5070 hc        1 MOL      0.174023
    163 N14        -5.8470    2.3000   -3.2430 n         1 MOL     -0.139942
    164 C55        -7.0740    2.4950   -4.0430 c3        1 MOL     -0.250237
    165 H73        -7.4710    1.5240   -4.3400 h1        1 MOL      0.095948
    166 H74        -7.8170    3.0230   -3.4460 h1        1 MOL      0.095948
    167 H75        -6.8400    3.0780   -4.9330 h1        1 MOL      0.095948
    168 H76        -5.9680    2.0030   -2.2800 hn        1 MOL      0.156550
    169 Ca1         0.3490   -1.0710    1.8850 Ca        1 MOL      1.633473
    170 O24         2.3820   -1.6990    0.3370 oh        1 MOL     -0.844842
    171 H77         2.8630   -0.9560   -0.0280 ho        1 MOL      0.419893
    172 H78         3.0600   -2.3050    0.6470 ho        1 MOL      0.419893
    173 O25        -0.8050    0.9640    3.2990 oh        1 MOL     -0.844842
    174 H79        -0.5240    1.7690    2.8660 ho        1 MOL      0.419893
    175 H80        -1.2160    1.2540    4.1150 ho        1 MOL      0.419893
    176 O26         1.5900   -3.1930    2.9900 oh        1 MOL     -0.844842
    177 H81         1.0150   -3.7840    3.4620 ho        1 MOL      0.419893
    178 H82         2.2040   -2.8700    3.6540 ho        1 MOL      0.419893
    179 O27         1.4310    1.1930    0.8540 oh        1 MOL     -0.844842
    180 H83         2.0370    1.1470    0.1240 ho        1 MOL      0.419893
    181 H84         0.8710    1.9450    0.6630 ho        1 MOL      0.419893
@<TRIPOS>BOND
     1    1    2 1   
     2    1    4 1   
     3    1    5 1   
     4    1    6 1   
     5    2    3 2   
     6    2    7 1   
     7    7    8 1   
     8    7   15 1   
     9    8    9 1   
    10    8   11 1   
    11    8   16 1   
    12    9   10 2   
    13    9   19 1   
    14   11   12 1   
    15   11   17 1   
    16   11   18 1   
    17   12   13 1   
    18   12   14 1   
    19   19   20 1   
    20   19   24 1   
    21   20   21 1   
    22   20   23 1   
    23   20   25 1   
    24   21   22 2   
    25   21   29 1   
    26   23   26 1   
    27   23   27 1   
    28   23   28 1   
    29   29   30 1   
    30   29   37 1   
    31   30   31 1   
    32   30   33 1   
    33   30   38 1   
    34   31   32 2   
    35   31   41 1   
    36   33   34 1   
    37   33   39 1   
    38   33   40 1   
    39   34   35 1   
    40   34   36 1   
    41   41   42 1   
    42   41   45 1   
    43   42   43 1   
    44   42   46 1   
    45   42   47 1   
    46   43   44 2   
    47   43   48 1   
    48   48   49 1   
    49   48   56 1   
    50   49   50 1   
    51   49   52 1   
    52   49   57 1   
    53   50   51 2   
    54   50   62 1   
    55   52   53 1   
    56   52   58 1   
    57   52   59 1   
    58   53   54 1   
    59   53   55 2   
    60   54   60 1   
    61   54   61 1   
    62   62   63 1   
    63   62   66 1   
    64   63   64 1   
    65   63   67 1   
    66   63   68 1   
    67   64   65 2   
    68   64   69 1   
    69   69   70 1   
    70   69   76 1   
    71   70   71 1   
    72   70   73 1   
    73   70   77 1   
    74   71   72 2   
    75   71   83 1   
    76   73   74 1   
    77   73   75 1   
    78   73   78 1   
    79   74   80 1   
    80   74   81 1   
    81   74   82 1   
    82   75   79 1   
    83   83   84 1   
    84   83   91 1   
    85   84   85 1   
    86   84   87 1   
    87   84   92 1   
    88   85   86 2   
    89   85  102 1   
    90   87   88 1   
    91   87   89 1   
    92   87   93 1   
    93   88   90 1   
    94   88   94 1   
    95   88   95 1   
    96   89   96 1   
    97   89   97 1   
    98   89   98 1   
    99   90   99 1   
   100   90  100 1   
   101   90  101 1   
   102  102  103 1   
   103  102  110 1   
   104  103  104 1   
   105  103  106 1   
   106  103  111 1   
   107  104  105 2   
   108  104  114 1   
   109  106  107 1   
   110  106  112 1   
   111  106  113 1   
   112  107  108 1   
   113  107  109 1   
   114  114  115 1   
   115  114  125 1   
   116  115  116 1   
   117  115  118 1   
   118  115  126 1   
   119  116  117 2   
   120  116  134 1   
   121  118  119 1   
   122  118  127 1   
   123  118  128 1   
   124  119  120 ar  
   125  119  121 ar  
   126  120  122 ar  
   127  120  129 1   
   128  121  123 ar  
   129  121  130 1   
   130  122  124 ar  
   131  122  131 1   
   132  123  124 ar  
   133  123  132 1   
   134  124  133 1   
   135  134  135 1   
   136  134  140 1   
   137  135  136 1   
   138  135  138 1   
   139  135  141 1   
   140  136  137 2   
   141  136  148 1   
   142  138  139 1   
   143  138  142 1   
   144  138  143 1   
   145  139  140 1   
   146  139  144 1   
   147  139  145 1   
   148  140  146 1   
   149  140  147 1   
   150  148  149 1   
   151  148  157 1   
   152  149  150 1   
   153  149  152 1   
   154  149  158 1   
   155  150  151 2   
   156  150  163 1   
   157  152  153 1   
   158  152  159 1   
   159  152  160 1   
   160  153  154 1   
   161  153  161 1   
   162  153  162 1   
   163  154  155 1   
   164  154  156 1   
   165  163  164 1   
   166  163  168 1   
   167  164  165 1   
   168  164  166 1   
   169  164  167 1   
   170  170  171 1   
   171  170  172 1   
   172  173  174 1   
   173  173  175 1   
   174  176  177 1   
   175  176  178 1   
   176  179  180 1   
   177  179  181 1   
@<TRIPOS>SUBSTRUCTURE
     1 MOL         1 TEMP              0 ****  ****    0 ROOT
