@<TRIPOS>MOLECULE
MOL
  181   177     1     0     0
SMALL
resp


@<TRIPOS>ATOM
      1 C1          6.3660   -3.6960    4.1180 c3        1 MOL     -0.284326
      2 C2          7.2780   -2.5530    3.6730 c         1 MOL      0.733497
      3 O1          6.8530   -1.3740    3.5800 o         1 MOL     -0.579506
      4 H1          5.4040   -3.2910    4.4320 hc        1 MOL      0.064924
      5 H2          6.2170   -4.3870    3.2880 hc        1 MOL      0.064924
      6 H3          6.8270   -4.2240    4.9520 hc        1 MOL      0.064924
      7 N1          8.5880   -2.8150    3.4730 n         1 MOL     -0.672828
      8 C3          9.5760   -1.8370    2.8670 c3        1 MOL      0.277511
      9 C4          9.2170   -1.4810    1.4510 c         1 MOL      0.503787
     10 O2          8.7390   -2.3720    0.7450 o         1 MOL     -0.558239
     11 C5         10.9870   -2.3390    3.0920 c3        1 MOL     -0.217651
     12 C6         12.1000   -1.4920    2.5050 c         1 MOL      0.762523
     13 O3         12.2290   -0.3160    2.8030 o         1 MOL     -0.742485
     14 O4         13.0140   -2.0420    1.8060 o         1 MOL     -0.742485
     15 H4          8.8140   -3.7930    3.4750 hn        1 MOL      0.328301
     16 H5          9.4840   -0.8770    3.3820 h1        1 MOL      0.014530
     17 H6         11.1390   -3.3200    2.6410 hc        1 MOL      0.004473
     18 H7         11.1330   -2.5790    4.1480 hc        1 MOL      0.004473
     19 N2          9.3300   -0.1920    1.0080 n         1 MOL     -0.493479
     20 C7          8.9910    0.3770   -0.3200 c3        1 MOL      0.304793
     21 C8          7.6620    1.1080   -0.2860 c         1 MOL      0.728993
     22 O5          7.4400    1.8490    0.6270 o         1 MOL     -0.592133
     23 C9         10.1100    1.2320   -0.8780 c3        1 MOL     -0.340840
     24 H8          9.6400    0.4220    1.7440 hn        1 MOL      0.271288
     25 H9          8.7850   -0.5020   -0.9320 h1        1 MOL     -0.021081
     26 H10        11.0940    0.7920   -0.7190 hc        1 MOL      0.081196
     27 H11         9.8640    1.4610   -1.9150 hc        1 MOL      0.081196
     28 H12        10.1570    2.1700   -0.3180 hc        1 MOL      0.081196
     29 N3          6.8310    1.0270   -1.3270 n         1 MOL     -0.816632
     30 C10         5.4590    1.6360   -1.3420 c3        1 MOL      0.424166
     31 C11         5.3870    2.8030   -2.3370 c         1 MOL      0.465354
     32 O6          6.1960    3.0010   -3.2460 o         1 MOL     -0.544286
     33 C12         4.5300    0.4860   -1.7540 c3        1 MOL     -0.082272
     34 C13         3.0900    0.8680   -1.8760 c         1 MOL      0.581434
     35 O7          2.6520    1.6950   -1.0040 o         1 MOL     -0.600874
     36 O8          2.3430    0.3390   -2.7450 o         1 MOL     -0.600874
     37 H13         7.1420    0.6670   -2.2120 hn        1 MOL      0.343802
     38 H14         5.1600    2.0720   -0.3850 h1        1 MOL      0.014875
     39 H15         4.6140   -0.3170   -1.0250 hc        1 MOL     -0.010391
     40 H16         4.9270    0.2860   -2.7510 hc        1 MOL     -0.010391
     41 N4          4.4420    3.7020   -2.0330 n         1 MOL     -0.416187
     42 C14         4.0930    4.8210   -2.8780 c3        1 MOL      0.013813
     43 C15         2.5580    4.8200   -3.3070 c         1 MOL      0.454116
     44 O9          2.1260    5.8320   -3.8380 o         1 MOL     -0.580864
     45 H17         3.8180    3.5180   -1.2570 hn        1 MOL      0.265712
     46 H18         4.6790    4.7730   -3.7920 h1        1 MOL      0.063145
     47 H19         4.4550    5.7280   -2.3790 h1        1 MOL      0.063145
     48 N5          1.7400    3.8210   -2.8530 n         1 MOL     -0.265818
     49 C16         0.3000    3.9080   -2.7760 c3        1 MOL      0.014906
     50 C17        -0.1750    4.7460   -1.6210 c         1 MOL      0.576666
     51 O10         0.2950    4.6740   -0.4890 o         1 MOL     -0.499535
     52 C18        -0.1930    2.4520   -2.5630 c3        1 MOL     -0.152603
     53 C19        -1.6770    2.3180   -2.9290 c         1 MOL      0.707987
     54 N6         -2.1450    1.1390   -2.7070 n         1 MOL     -0.855596
     55 O11        -2.3860    3.1960   -3.3390 o         1 MOL     -0.611069
     56 H20         2.1530    3.0800   -2.3020 hn        1 MOL      0.129626
     57 H21        -0.1780    4.2410   -3.6930 h1        1 MOL      0.036696
     58 H22        -0.0550    2.1130   -1.5330 hc        1 MOL      0.038874
     59 H23         0.4330    1.7150   -3.0810 hc        1 MOL      0.038874
     60 H24        -1.5300    0.5300   -2.1880 hn        1 MOL      0.351309
     61 H25        -3.1490    1.0520   -2.6300 hn        1 MOL      0.351309
     62 N7         -1.1250    5.6280   -1.8920 n         1 MOL     -0.443791
     63 C20        -1.8640    6.4620   -0.9550 c3        1 MOL      0.098938
     64 C21        -2.9210    5.7610   -0.1700 c         1 MOL      0.558291
     65 O12        -3.2540    4.6070   -0.4930 o         1 MOL     -0.479306
     66 H26        -1.4930    5.6340   -2.8280 hn        1 MOL      0.285089
     67 H27        -2.3050    7.3140   -1.4810 h1        1 MOL      0.011120
     68 H28        -1.1360    6.9080   -0.2730 h1        1 MOL      0.011120
     69 N8         -3.4060    6.3660    0.8480 n         1 MOL     -0.326426
     70 C22        -4.7060    5.8950    1.4650 c3        1 MOL     -0.467046
     71 C23        -4.6200    4.6020    2.2920 c         1 MOL      0.668002
     72 O13        -5.7000    4.0720    2.6140 o         1 MOL     -0.606443
     73 C24        -5.5120    6.9790    2.2650 c3        1 MOL      0.579390
     74 C25        -4.9730    7.0000    3.7200 c3        1 MOL     -0.141880
     75 O14        -5.2280    8.2340    1.7840 oh        1 MOL     -0.690389
     76 H29        -3.1210    7.3140    1.0680 hn        1 MOL      0.219632
     77 H30        -5.3180    5.5770    0.6260 h1        1 MOL      0.166413
     78 H31        -6.5700    6.7290    2.3740 h1        1 MOL     -0.006577
     79 H32        -4.3620    8.2780    1.3720 ho        1 MOL      0.412073
     80 H33        -5.2930    6.1280    4.3100 hc        1 MOL      0.021194
     81 H34        -3.8820    7.0340    3.7240 hc        1 MOL      0.021194
     82 H35        -5.3200    7.8900    4.2320 hc        1 MOL      0.021194
     83 N9         -3.4490    4.0340    2.4840 n         1 MOL     -0.369186
     84 C26        -3.1500    2.6720    2.8820 c3        1 MOL      0.070153
     85 C27        -2.3200    1.9310    1.8550 c         1 MOL      0.492429
     86 O15        -1.4820    2.5700    1.1840 o         1 MOL     -0.460830
     87 C28        -2.7580    2.6160    4.4160 c3        1 MOL      0.219441
     88 C29        -2.0290    3.9310    4.9180 c3        1 MOL      0.141487
     89 C30        -3.9900    2.3880    5.2830 c3        1 MOL     -0.464912
     90 C31        -1.3320    3.6500    6.2420 c3        1 MOL     -0.256455
     91 H36        -2.6430    4.5260    2.1180 hn        1 MOL      0.188769
     92 H37        -4.0460    2.0620    2.7990 h1        1 MOL      0.027218
     93 H38        -2.0930    1.7520    4.4710 hc        1 MOL     -0.021727
     94 H39        -2.6970    4.7770    5.0510 hc        1 MOL     -0.003422
     95 H40        -1.2100    4.0780    4.1980 hc        1 MOL     -0.003422
     96 H41        -4.6020    1.6000    4.8540 hc        1 MOL      0.106709
     97 H42        -3.6500    2.0970    6.2700 hc        1 MOL      0.106709
     98 H43        -4.6520    3.2410    5.4460 hc        1 MOL      0.106709
     99 H44        -0.7570    2.7370    6.1070 hc        1 MOL      0.054627
    100 H45        -0.6920    4.5190    6.4270 hc        1 MOL      0.054627
    101 H46        -2.0420    3.5140    7.0530 hc        1 MOL      0.054627
    102 N10        -2.4760    0.6470    1.7870 n         1 MOL     -0.527695
    103 C32        -2.0610   -0.0350    0.5900 c3        1 MOL      0.181075
    104 C33        -3.1560   -1.0660    0.1170 c         1 MOL      0.645909
    105 O16        -2.9310   -2.2140   -0.1610 o         1 MOL     -0.555014
    106 C34        -0.6740   -0.5400    0.7310 c3        1 MOL     -0.247137
    107 C35        -0.0760   -1.1340   -0.5440 c         1 MOL      0.699187
    108 O17        -0.5300   -0.9650   -1.6890 o         1 MOL     -0.698487
    109 O18         1.0470   -1.6800   -0.5040 o         1 MOL     -0.698487
    110 H47        -3.1870    0.2740    2.4030 hn        1 MOL      0.289199
    111 H48        -2.0900    0.6460   -0.2710 h1        1 MOL      0.040193
    112 H49        -0.6130   -1.2910    1.5100 hc        1 MOL      0.116226
    113 H50        -0.0500    0.2900    1.0790 hc        1 MOL      0.116226
    114 N11        -4.4100   -0.6610    0.1070 n         1 MOL     -0.586661
    115 C36        -5.5650   -1.4470   -0.3620 c3        1 MOL      0.267108
    116 C37        -5.5630   -2.8050    0.3070 c         1 MOL      0.362721
    117 O19        -5.2580   -2.9330    1.4550 o         1 MOL     -0.533638
    118 C38        -6.8050   -0.5810   -0.1080 c3        1 MOL     -0.368552
    119 C39        -8.0640   -1.2440   -0.5760 ca        1 MOL      0.202189
    120 C40        -8.6670   -0.9440   -1.8050 ca        1 MOL     -0.220060
    121 C41        -8.7200   -2.1450    0.3210 ca        1 MOL     -0.220060
    122 C42        -9.8620   -1.6190   -2.1630 ca        1 MOL     -0.066367
    123 C43        -9.9500   -2.7540   -0.0130 ca        1 MOL     -0.066367
    124 C44       -10.5580   -2.4810   -1.2960 ca        1 MOL     -0.173918
    125 H51        -4.6460    0.2730    0.4090 hn        1 MOL      0.285859
    126 H52        -5.4010   -1.4720   -1.4410 h1        1 MOL      0.046504
    127 H53        -6.6610    0.3970   -0.5580 hc        1 MOL      0.133606
    128 H54        -6.9120   -0.5470    0.9790 hc        1 MOL      0.133606
    129 H55        -8.2250   -0.2210   -2.4730 ha        1 MOL      0.140252
    130 H56        -8.2790   -2.3160    1.2960 ha        1 MOL      0.140252
    131 H57       -10.3980   -1.2960   -3.0410 ha        1 MOL      0.101253
    132 H58       -10.4600   -3.2980    0.7670 ha        1 MOL      0.101253
    133 H59       -11.5280   -2.8730   -1.5420 ha        1 MOL      0.124836
    134 N12        -5.8180   -3.8810   -0.3850 n         1 MOL     -0.028216
    135 C45        -5.7260   -5.2220    0.1860 c3        1 MOL      0.022945
    136 C46        -4.4450   -5.6720    1.0030 c         1 MOL      0.274981
    137 O20        -4.5800   -6.6400    1.8260 o         1 MOL     -0.516141
    138 C47        -5.9020   -6.1430   -1.0190 c3        1 MOL      0.002172
    139 C48        -6.7750   -5.3220   -1.9550 c3        1 MOL      0.100963
    140 C49        -6.2770   -3.9150   -1.7470 c3        1 MOL     -0.143916
    141 H60        -6.6180   -5.4470    0.7730 h1        1 MOL      0.056427
    142 H61        -4.9960   -6.5140   -1.4990 hc        1 MOL      0.013279
    143 H62        -6.4960   -7.0240   -0.7460 hc        1 MOL      0.013279
    144 H63        -6.7920   -5.7430   -2.9480 hc        1 MOL     -0.004124
    145 H64        -7.8370   -5.4500   -1.7350 hc        1 MOL     -0.004124
    146 H65        -5.4050   -3.7330   -2.3810 h1        1 MOL      0.034408
    147 H66        -7.1070   -3.2300   -1.9370 h1        1 MOL      0.034408
    148 N13        -3.3130   -4.9850    0.8140 n         1 MOL     -0.084541
    149 C50        -1.9420   -5.3540    1.4310 c3        1 MOL     -0.461388
    150 C51        -1.6580   -4.9640    2.8630 c         1 MOL      0.603472
    151 O21        -0.6780   -5.5060    3.4550 o         1 MOL     -0.532188
    152 C52        -0.9190   -4.6980    0.4930 c3        1 MOL      0.094829
    153 C53        -0.9050   -5.3720   -0.8830 c3        1 MOL      0.011355
    154 C54        -0.0060   -4.7150   -1.8920 c         1 MOL      0.616532
    155 O22        -0.4000   -3.7710   -2.6150 o         1 MOL     -0.748292
    156 O23         1.2360   -5.0230   -1.8960 o         1 MOL     -0.748292
    157 H67        -3.3040   -4.1930    0.1960 hn        1 MOL      0.259179
    158 H68        -1.8510   -6.4310    1.2940 h1        1 MOL      0.198658
    159 H69         0.0760   -4.8350    0.9140 hc        1 MOL      0.039118
    160 H70        -0.9790   -3.6260    0.3120 hc        1 MOL      0.039118
    161 H71        -1.8940   -5.3670   -1.3310 hc        1 MOL     -0.020286
    162 H72        -0.6030   -6.4260   -0.8600 hc        1 MOL     -0.020286
    163 N14        -2.5290   -4.0460    3.3730 n         1 MOL     -0.241498
    164 C55        -2.3860   -3.4580    4.6990 c3        1 MOL     -0.371307
    165 H73        -2.7190   -4.1730    5.4510 h1        1 MOL      0.131633
    166 H74        -1.3390   -3.2070    4.8740 h1        1 MOL      0.131633
    167 H75        -2.9920   -2.5540    4.7630 h1        1 MOL      0.131633
    168 H76        -3.1920   -3.5820    2.7840 hn        1 MOL      0.263667
    169 Ca1         1.3780   -2.0580   -3.1630 Ca        1 MOL      1.784950
    170 O24         3.8200   -2.9690   -2.4500 oh        1 MOL     -0.854779
    171 H77         4.5530   -3.3890   -2.9020 ho        1 MOL      0.418604
    172 H78         3.8310   -3.3540   -1.5720 ho        1 MOL      0.418604
    173 O25         3.2610   -1.3310   -4.8260 oh        1 MOL     -0.854779
    174 H79         3.2630   -0.3860   -4.9980 ho        1 MOL      0.418604
    175 H80         4.1230   -1.6300   -5.1190 ho        1 MOL      0.418604
    176 O26        -0.3770   -0.5880   -4.5260 oh        1 MOL     -0.854779
    177 H81        -1.1960   -0.5600   -4.0350 ho        1 MOL      0.418604
    178 H82        -0.4930    0.0460   -5.2340 ho        1 MOL      0.418604
    179 O27         1.1160   -3.3190   -5.7620 oh        1 MOL     -0.854779
    180 H83         0.7740   -2.9400   -6.5670 ho        1 MOL      0.418604
    181 H84         1.6870   -4.0390   -6.0520 ho        1 MOL      0.418604
@<TRIPOS>BOND
     1    1    2 1   
     2    1    4 1   
     3    1    5 1   
     4    1    6 1   
     5    2    3 2   
     6    2    7 1   
     7    7    8 1   
     8    7   15 1   
     9    8    9 1   
    10    8   11 1   
    11    8   16 1   
    12    9   10 2   
    13    9   19 1   
    14   11   12 1   
    15   11   17 1   
    16   11   18 1   
    17   12   13 1   
    18   12   14 1   
    19   19   20 1   
    20   19   24 1   
    21   20   21 1   
    22   20   23 1   
    23   20   25 1   
    24   21   22 2   
    25   21   29 1   
    26   23   26 1   
    27   23   27 1   
    28   23   28 1   
    29   29   30 1   
    30   29   37 1   
    31   30   31 1   
    32   30   33 1   
    33   30   38 1   
    34   31   32 2   
    35   31   41 1   
    36   33   34 1   
    37   33   39 1   
    38   33   40 1   
    39   34   35 1   
    40   34   36 1   
    41   41   42 1   
    42   41   45 1   
    43   42   43 1   
    44   42   46 1   
    45   42   47 1   
    46   43   44 2   
    47   43   48 1   
    48   48   49 1   
    49   48   56 1   
    50   49   50 1   
    51   49   52 1   
    52   49   57 1   
    53   50   51 2   
    54   50   62 1   
    55   52   53 1   
    56   52   58 1   
    57   52   59 1   
    58   53   54 1   
    59   53   55 2   
    60   54   60 1   
    61   54   61 1   
    62   62   63 1   
    63   62   66 1   
    64   63   64 1   
    65   63   67 1   
    66   63   68 1   
    67   64   65 2   
    68   64   69 1   
    69   69   70 1   
    70   69   76 1   
    71   70   71 1   
    72   70   73 1   
    73   70   77 1   
    74   71   72 2   
    75   71   83 1   
    76   73   74 1   
    77   73   75 1   
    78   73   78 1   
    79   74   80 1   
    80   74   81 1   
    81   74   82 1   
    82   75   79 1   
    83   83   84 1   
    84   83   91 1   
    85   84   85 1   
    86   84   87 1   
    87   84   92 1   
    88   85   86 2   
    89   85  102 1   
    90   87   88 1   
    91   87   89 1   
    92   87   93 1   
    93   88   90 1   
    94   88   94 1   
    95   88   95 1   
    96   89   96 1   
    97   89   97 1   
    98   89   98 1   
    99   90   99 1   
   100   90  100 1   
   101   90  101 1   
   102  102  103 1   
   103  102  110 1   
   104  103  104 1   
   105  103  106 1   
   106  103  111 1   
   107  104  105 2   
   108  104  114 1   
   109  106  107 1   
   110  106  112 1   
   111  106  113 1   
   112  107  108 1   
   113  107  109 1   
   114  114  115 1   
   115  114  125 1   
   116  115  116 1   
   117  115  118 1   
   118  115  126 1   
   119  116  117 2   
   120  116  134 1   
   121  118  119 1   
   122  118  127 1   
   123  118  128 1   
   124  119  120 ar  
   125  119  121 ar  
   126  120  122 ar  
   127  120  129 1   
   128  121  123 ar  
   129  121  130 1   
   130  122  124 ar  
   131  122  131 1   
   132  123  124 ar  
   133  123  132 1   
   134  124  133 1   
   135  134  135 1   
   136  134  140 1   
   137  135  136 1   
   138  135  138 1   
   139  135  141 1   
   140  136  137 2   
   141  136  148 1   
   142  138  139 1   
   143  138  142 1   
   144  138  143 1   
   145  139  140 1   
   146  139  144 1   
   147  139  145 1   
   148  140  146 1   
   149  140  147 1   
   150  148  149 1   
   151  148  157 1   
   152  149  150 1   
   153  149  152 1   
   154  149  158 1   
   155  150  151 2   
   156  150  163 1   
   157  152  153 1   
   158  152  159 1   
   159  152  160 1   
   160  153  154 1   
   161  153  161 1   
   162  153  162 1   
   163  154  155 1   
   164  154  156 1   
   165  163  164 1   
   166  163  168 1   
   167  164  165 1   
   168  164  166 1   
   169  164  167 1   
   170  170  171 1   
   171  170  172 1   
   172  173  174 1   
   173  173  175 1   
   174  176  177 1   
   175  176  178 1   
   176  179  180 1   
   177  179  181 1   
@<TRIPOS>SUBSTRUCTURE
     1 MOL         1 TEMP              0 ****  ****    0 ROOT
