@<TRIPOS>MOLECULE
MOL
  192   187     1     0     0
SMALL
resp


@<TRIPOS>ATOM
      1 C1         12.1610    4.3370   -4.0140 c3        1 MOL     -0.206002
      2 C2         11.9870    3.0240   -3.1890 c         1 MOL      0.553392
      3 O1         12.8280    2.1190   -3.2080 o         1 MOL     -0.554136
      4 H1         11.2070    4.6110   -4.4650 hc        1 MOL      0.059136
      5 H2         12.4940    5.1390   -3.3560 hc        1 MOL      0.059136
      6 H3         12.9010    4.1780   -4.7990 hc        1 MOL      0.059136
      7 N1         11.0330    2.9720   -2.3060 n         1 MOL     -0.189243
      8 C3         10.7700    1.9030   -1.3060 c3        1 MOL     -0.472450
      9 C4          9.2620    1.5960   -1.1100 c         1 MOL      0.984922
     10 O2          8.3980    2.4650   -1.1110 o         1 MOL     -0.787065
     11 C5         11.4800    2.1920    0.0260 c3        1 MOL     -0.005017
     12 C6         11.0380    3.4470    0.7930 c         1 MOL      0.622354
     13 O3         10.0960    4.2120    0.4950 o         1 MOL     -0.686043
     14 O4         11.6520    3.5980    1.8790 o         1 MOL     -0.686043
     15 H4         10.4560    3.7830   -2.1990 hn        1 MOL      0.137391
     16 H5         11.1620    1.0130   -1.8000 h1        1 MOL      0.140502
     17 H6         12.5400    2.3230   -0.1500 hc        1 MOL      0.075138
     18 H7         11.3720    1.3320    0.6900 hc        1 MOL      0.075138
     19 N2          8.9770    0.3280   -0.9330 n         1 MOL     -0.725419
     20 C7          7.6020   -0.1430   -0.9130 c3        1 MOL      0.201636
     21 C8          6.7560    0.2100    0.2920 c         1 MOL      0.350679
     22 O5          7.2280    0.3880    1.4210 o         1 MOL     -0.498576
     23 C9          7.5460   -1.6470   -1.0870 c3        1 MOL     -0.142078
     24 C10         8.0800   -2.2360   -2.4170 c3        1 MOL      0.021695
     25 C11         7.0410   -2.6270   -3.3900 c3        1 MOL     -0.187738
     26 C12         6.2050   -3.8210   -2.9260 c3        1 MOL     -0.057449
     27 N3          5.6580   -4.5650   -4.0720 n4        1 MOL     -0.301071
     28 H8          9.6850   -0.3150   -0.6190 hn        1 MOL      0.386729
     29 H9          7.0340    0.3240   -1.7170 h1        1 MOL      0.089947
     30 H10         6.5950   -2.1220   -0.8840 hc        1 MOL      0.077609
     31 H11         8.2300   -2.0370   -0.3370 hc        1 MOL      0.077609
     32 H12         8.5300   -3.1660   -2.0630 hc        1 MOL      0.029322
     33 H13         8.8640   -1.6480   -2.8960 hc        1 MOL      0.029322
     34 H14         7.4230   -2.8500   -4.3910 hc        1 MOL      0.080622
     35 H15         6.4370   -1.7570   -3.6610 hc        1 MOL      0.080622
     36 H16         5.4560   -3.5400   -2.1880 hx        1 MOL      0.129841
     37 H17         6.8990   -4.5330   -2.4930 hx        1 MOL      0.129841
     38 H18         6.4010   -4.9000   -4.6690 hn        1 MOL      0.271124
     39 H19         5.1410   -5.3830   -3.7890 hn        1 MOL      0.271124
     40 H20         5.0930   -3.9380   -4.6280 hn        1 MOL      0.271124
     41 N4          5.4550    0.2000    0.0510 n         1 MOL     -0.210645
     42 C13         4.4030    0.3800    1.0570 c3        1 MOL     -0.112165
     43 C14         3.1040   -0.0430    0.5040 c         1 MOL      0.465330
     44 O6          2.8690    0.0460   -0.6870 o         1 MOL     -0.399480
     45 C15         4.2900    1.8810    1.5330 c3        1 MOL     -0.008785
     46 C16         4.2160    3.0050    0.3440 c         1 MOL      0.676333
     47 O7          3.1240    3.4230   -0.1480 o         1 MOL     -0.712560
     48 O8          5.2920    3.4220   -0.1280 o         1 MOL     -0.712560
     49 H21         5.1450    0.0430   -0.8970 hn        1 MOL      0.137413
     50 H22         4.6300   -0.2850    1.8930 h1        1 MOL      0.127836
     51 H23         5.2070    2.0800    2.0890 hc        1 MOL      0.015551
     52 H24         3.4770    2.0030    2.2460 hc        1 MOL      0.015551
     53 N5          2.1020   -0.5480    1.2220 n         1 MOL     -0.457984
     54 C17         2.0870   -1.0200    2.6360 c3        1 MOL     -0.036642
     55 C18         2.8680   -2.3520    2.7570 c         1 MOL      0.702747
     56 O9          3.8830   -2.6360    2.0780 o         1 MOL     -0.558008
     57 H25         1.3390   -0.9990    0.7370 hn        1 MOL      0.361950
     58 H26         1.0540   -1.3250    2.7740 h1        1 MOL      0.069715
     59 H27         2.3610   -0.2880    3.4080 h1        1 MOL      0.069715
     60 N6          2.2670   -3.2670    3.5430 n         1 MOL     -0.747952
     61 C19         2.7160   -4.7370    3.6130 c3        1 MOL      0.157073
     62 C20         1.7620   -5.6380    2.8690 c         1 MOL      0.384507
     63 O10         2.1970   -6.6050    2.2610 o         1 MOL     -0.541721
     64 C21         2.7860   -5.1540    5.0390 c3        1 MOL     -0.052059
     65 C22         3.4420   -4.1370    5.9640 c         1 MOL      0.685707
     66 O11         4.6760   -3.9340    5.8810 o         1 MOL     -0.650690
     67 O12         2.7670   -3.7360    6.9440 o         1 MOL     -0.650690
     68 H28         1.3740   -3.0190    3.9580 hn        1 MOL      0.336484
     69 H29         3.7650   -4.8910    3.3290 h1        1 MOL      0.087611
     70 H30         3.4200   -6.0380    4.9990 hc        1 MOL     -0.002505
     71 H31         1.8000   -5.3380    5.4630 hc        1 MOL     -0.002505
     72 N7          0.4950   -5.3540    2.8300 n         1 MOL     -0.180033
     73 C23        -0.5830   -5.9710    2.1360 c3        1 MOL     -0.253803
     74 C24        -0.8810   -5.4050    0.7050 c         1 MOL      0.505318
     75 O13        -2.0050   -5.4160    0.1980 o         1 MOL     -0.514114
     76 H32         0.2330   -4.5660    3.4130 hn        1 MOL      0.245855
     77 H33        -1.4470   -6.0410    2.8060 h1        1 MOL      0.131405
     78 H34        -0.2540   -7.0000    2.0120 h1        1 MOL      0.131405
     79 N8          0.1700   -4.8600    0.0850 n         1 MOL     -0.337366
     80 C25        -0.0160   -4.0600   -1.1280 c3        1 MOL      0.208302
     81 C26        -0.2340   -2.6040   -0.8550 c         1 MOL      0.331867
     82 O14         0.0300   -2.1010    0.2700 o         1 MOL     -0.588116
     83 C27         1.1900   -4.2650   -2.1000 c3        1 MOL      0.005582
     84 C28         2.4840   -3.7320   -1.5970 c3        1 MOL     -0.090448
     85 O15         1.4020   -5.6440   -2.2270 oh        1 MOL     -0.554946
     86 H35         1.0070   -4.7080    0.6230 hn        1 MOL      0.292482
     87 H36        -0.9140   -4.4220   -1.6370 h1        1 MOL      0.059926
     88 H37         0.8550   -3.8720   -3.0550 h1        1 MOL      0.051973
     89 H38         1.4680   -5.7500   -3.1780 ho        1 MOL      0.378102
     90 H39         3.3450   -3.9800   -2.2190 hc        1 MOL      0.037324
     91 H40         2.4650   -2.6670   -1.3880 hc        1 MOL      0.037324
     92 H41         2.6390   -4.2270   -0.6390 hc        1 MOL      0.037324
     93 N9         -0.6990   -1.9180   -1.9190 n         1 MOL     -0.159176
     94 C29        -1.0750   -0.5060   -1.8460 c3        1 MOL      0.025155
     95 C30        -2.3160   -0.3980   -0.9460 c         1 MOL      0.281480
     96 O16        -2.6150    0.5240   -0.1920 o         1 MOL     -0.488271
     97 C31        -1.4130    0.0790   -3.2310 c3        1 MOL      0.296067
     98 C32        -0.2330   -0.2870   -4.1950 c3        1 MOL     -0.046306
     99 C33        -1.6980    1.5420   -3.0930 c3        1 MOL     -0.445068
    100 C34         1.2020    0.3460   -3.8800 c3        1 MOL     -0.684200
    101 H42        -0.8870   -2.4600   -2.7510 hn        1 MOL      0.189056
    102 H43        -0.3180    0.0680   -1.3030 h1        1 MOL      0.104799
    103 H44        -2.2340   -0.5410   -3.5810 hc        1 MOL     -0.055836
    104 H45        -0.5500    0.1550   -5.1370 hc        1 MOL      0.010851
    105 H46        -0.0440   -1.3380   -4.4320 hc        1 MOL      0.010851
    106 H47        -2.5210    1.7680   -2.4240 hc        1 MOL      0.133122
    107 H48        -0.7980    2.0890   -2.8370 hc        1 MOL      0.133122
    108 H49        -1.8300    1.8370   -4.1330 hc        1 MOL      0.133122
    109 H50         1.5000    0.0580   -2.8790 hc        1 MOL      0.189685
    110 H51         1.7920    0.0910   -4.7700 hc        1 MOL      0.189685
    111 H52         1.0940    1.4300   -3.9790 hc        1 MOL      0.189685
    112 N10        -3.0810   -1.5270   -0.9120 n         1 MOL     -0.124853
    113 C35        -4.2710   -1.7060   -0.1150 c3        1 MOL     -0.053716
    114 C36        -5.3490   -2.3060   -1.0220 c         1 MOL      0.605130
    115 O17        -4.9840   -2.9440   -1.9620 o         1 MOL     -0.548333
    116 C37        -3.9350   -2.7500    0.9290 c3        1 MOL      0.570986
    117 C38        -2.9370   -2.2200    1.9270 c3        1 MOL     -0.409506
    118 O18        -5.1160   -3.1640    1.5840 oh        1 MOL     -0.658944
    119 H53        -2.8550   -2.2790   -1.5440 hn        1 MOL      0.127033
    120 H54        -4.7270   -0.8220    0.3160 h1        1 MOL      0.070158
    121 H55        -3.4550   -3.5710    0.3990 h1        1 MOL     -0.100379
    122 H56        -4.7750   -3.9640    1.9920 ho        1 MOL      0.385129
    123 H57        -2.1390   -1.6820    1.4140 hc        1 MOL      0.095710
    124 H58        -3.3900   -1.5390    2.6480 hc        1 MOL      0.095710
    125 H59        -2.4870   -3.0720    2.4510 hc        1 MOL      0.095710
    126 N11        -6.6230   -1.8640   -0.9540 n         1 MOL     -0.688998
    127 C39        -7.5780   -2.0720   -2.0920 c3        1 MOL      0.128927
    128 C40        -8.5370   -0.8950   -2.2890 c         1 MOL      0.540193
    129 O19        -9.1060   -0.7060   -3.3650 o         1 MOL     -0.561809
    130 C41        -8.2760   -3.4520   -1.9180 c3        1 MOL      0.280872
    131 C42        -9.3930   -3.7760   -2.9660 c3        1 MOL     -0.385322
    132 O20        -8.9460   -3.3620   -0.7140 oh        1 MOL     -0.595919
    133 H60        -6.8370   -1.4830   -0.0480 hn        1 MOL      0.397756
    134 H61        -7.0720   -2.2070   -3.0460 h1        1 MOL      0.081756
    135 H62        -7.5820   -4.2910   -1.9940 h1        1 MOL      0.055805
    136 H63        -9.7050   -3.9480   -0.8290 ho        1 MOL      0.376024
    137 H64        -8.8490   -3.7420   -3.9110 hc        1 MOL      0.098581
    138 H65        -9.7740   -4.7970   -2.9420 hc        1 MOL      0.098581
    139 H66       -10.2020   -3.0480   -2.8840 hc        1 MOL      0.098581
    140 N12        -8.8560   -0.1990   -1.1720 n         1 MOL     -0.467881
    141 C43        -9.7900    0.9610   -1.0030 c3        1 MOL      0.125634
    142 C44        -9.3810    1.7990    0.1530 c         1 MOL      0.648376
    143 O21        -9.0220    1.2810    1.2260 o         1 MOL     -0.523805
    144 C45       -11.1830    0.4170   -0.9040 c3        1 MOL     -0.244096
    145 C46       -12.2700    1.4250   -0.4590 c3        1 MOL     -0.017378
    146 C47       -13.5680    0.5560   -0.4250 c3        1 MOL      0.016983
    147 C48       -14.7890    1.4860   -0.3020 c3        1 MOL      0.112574
    148 N13       -16.0480    0.7770   -0.1520 n4        1 MOL     -0.301680
    149 H67        -8.3960   -0.5320   -0.3440 hn        1 MOL      0.245685
    150 H68        -9.7140    1.5430   -1.9180 h1        1 MOL      0.083432
    151 H69       -11.1200   -0.3470   -0.1280 hc        1 MOL      0.110696
    152 H70       -11.4760   -0.0460   -1.8550 hc        1 MOL      0.110696
    153 H71       -12.4010    2.1510   -1.2650 hc        1 MOL      0.035289
    154 H72       -12.1550    1.9490    0.4860 hc        1 MOL      0.035289
    155 H73       -13.5240   -0.1640    0.3910 hc        1 MOL      0.012394
    156 H74       -13.7670   -0.0500   -1.3070 hc        1 MOL      0.012394
    157 H75       -14.7880    2.1020   -1.2040 hx        1 MOL      0.047523
    158 H76       -14.6740    2.2740    0.4430 hx        1 MOL      0.047523
    159 H77       -16.8230    1.4250   -0.1440 hn        1 MOL      0.247004
    160 H78       -16.2380    0.1800   -0.9530 hn        1 MOL      0.247004
    161 H79       -16.0380    0.2860    0.7290 hn        1 MOL      0.247004
    162 N14        -9.3160    3.1050   -0.0430 n         1 MOL     -0.915154
    163 C49        -8.9810    4.0540    1.0500 c3        1 MOL      0.804142
    164 C50        -7.4270    3.8500    1.3720 c         1 MOL      0.150654
    165 O22        -7.0880    3.5580    2.5700 o         1 MOL     -0.501685
    166 C51        -9.3860    5.5250    0.8080 c3        1 MOL     -0.296920
    167 C52        -8.9610    6.4380    1.9490 c3        1 MOL     -0.143697
    168 C53        -9.7540    7.6780    1.9450 c         1 MOL      0.767430
    169 O23        -9.9460    8.3250    0.9450 o         1 MOL     -0.660686
    170 O24       -10.2930    8.0590    2.9800 o         1 MOL     -0.660686
    171 H80        -9.6570    3.3970   -0.9490 hn        1 MOL      0.329413
    172 H81        -9.4180    3.7390    1.9970 h1        1 MOL     -0.037453
    173 H82       -10.4430    5.3300    0.9940 hc        1 MOL      0.059759
    174 H83        -9.0710    5.8820   -0.1780 hc        1 MOL      0.059759
    175 H84        -7.9330    6.7420    1.7410 hc        1 MOL      0.031907
    176 H85        -8.9890    5.8500    2.8690 hc        1 MOL      0.031907
    177 N15        -6.4950    3.9240    0.4090 n         1 MOL     -0.181292
    178 C54        -6.5230    4.4020   -0.9400 c3        1 MOL      0.000823
    179 H86        -7.5420    4.6820   -1.2040 h1        1 MOL      0.037144
    180 H87        -5.8730    5.2730   -1.0310 h1        1 MOL      0.037144
    181 H88        -6.1770    3.6170   -1.6130 h1        1 MOL      0.037144
    182 H89        -5.5860    3.5970    0.7200 hn        1 MOL      0.262771
    183 Ca1         7.5920    4.6410    0.3170 Ca        1 MOL      1.778885
    184 O25         5.7150    5.8370    1.5740 oh        1 MOL     -0.899947
    185 H90         4.9870    5.7030    2.1780 ho        1 MOL      0.442749
    186 H91         5.6360    6.7510    1.2970 ho        1 MOL      0.442749
    187 O26         8.8090    6.1290    2.3440 oh        1 MOL     -0.899947
    188 H92         9.7590    6.2010    2.2590 ho        1 MOL      0.442749
    189 H93         8.6320    6.3400    3.2590 ho        1 MOL      0.442749
    190 O27         7.7840    2.9100    2.3950 oh        1 MOL     -0.899947
    191 H94         8.2030    3.1850    3.2070 ho        1 MOL      0.442749
    192 H95         7.7740    1.9510    2.4370 ho        1 MOL      0.442749
@<TRIPOS>BOND
     1    1    2 1   
     2    1    4 1   
     3    1    5 1   
     4    1    6 1   
     5    2    3 2   
     6    2    7 1   
     7    7    8 1   
     8    7   15 1   
     9    8    9 1   
    10    8   11 1   
    11    8   16 1   
    12    9   10 2   
    13    9   19 1   
    14   11   12 1   
    15   11   17 1   
    16   11   18 1   
    17   12   13 1   
    18   12   14 1   
    19   19   20 1   
    20   19   28 1   
    21   20   21 1   
    22   20   23 1   
    23   20   29 1   
    24   21   22 2   
    25   21   41 1   
    26   23   24 1   
    27   23   30 1   
    28   23   31 1   
    29   24   25 1   
    30   24   32 1   
    31   24   33 1   
    32   25   26 1   
    33   25   34 1   
    34   25   35 1   
    35   26   27 1   
    36   26   36 1   
    37   26   37 1   
    38   27   38 1   
    39   27   39 1   
    40   27   40 1   
    41   41   42 1   
    42   41   49 1   
    43   42   43 1   
    44   42   45 1   
    45   42   50 1   
    46   43   44 2   
    47   43   53 1   
    48   45   46 1   
    49   45   51 1   
    50   45   52 1   
    51   46   47 1   
    52   46   48 1   
    53   53   54 1   
    54   53   57 1   
    55   54   55 1   
    56   54   58 1   
    57   54   59 1   
    58   55   56 2   
    59   55   60 1   
    60   60   61 1   
    61   60   68 1   
    62   61   62 1   
    63   61   64 1   
    64   61   69 1   
    65   62   63 2   
    66   62   72 1   
    67   64   65 1   
    68   64   70 1   
    69   64   71 1   
    70   65   66 1   
    71   65   67 1   
    72   72   73 1   
    73   72   76 1   
    74   73   74 1   
    75   73   77 1   
    76   73   78 1   
    77   74   75 2   
    78   74   79 1   
    79   79   80 1   
    80   79   86 1   
    81   80   81 1   
    82   80   83 1   
    83   80   87 1   
    84   81   82 2   
    85   81   93 1   
    86   83   84 1   
    87   83   85 1   
    88   83   88 1   
    89   84   90 1   
    90   84   91 1   
    91   84   92 1   
    92   85   89 1   
    93   93   94 1   
    94   93  101 1   
    95   94   95 1   
    96   94   97 1   
    97   94  102 1   
    98   95   96 2   
    99   95  112 1   
   100   97   98 1   
   101   97   99 1   
   102   97  103 1   
   103   98  100 1   
   104   98  104 1   
   105   98  105 1   
   106   99  106 1   
   107   99  107 1   
   108   99  108 1   
   109  100  109 1   
   110  100  110 1   
   111  100  111 1   
   112  112  113 1   
   113  112  119 1   
   114  113  114 1   
   115  113  116 1   
   116  113  120 1   
   117  114  115 2   
   118  114  126 1   
   119  116  117 1   
   120  116  118 1   
   121  116  121 1   
   122  117  123 1   
   123  117  124 1   
   124  117  125 1   
   125  118  122 1   
   126  126  127 1   
   127  126  133 1   
   128  127  128 1   
   129  127  130 1   
   130  127  134 1   
   131  128  129 2   
   132  128  140 1   
   133  130  131 1   
   134  130  132 1   
   135  130  135 1   
   136  131  137 1   
   137  131  138 1   
   138  131  139 1   
   139  132  136 1   
   140  140  141 1   
   141  140  149 1   
   142  141  142 1   
   143  141  144 1   
   144  141  150 1   
   145  142  143 2   
   146  142  162 1   
   147  144  145 1   
   148  144  151 1   
   149  144  152 1   
   150  145  146 1   
   151  145  153 1   
   152  145  154 1   
   153  146  147 1   
   154  146  155 1   
   155  146  156 1   
   156  147  148 1   
   157  147  157 1   
   158  147  158 1   
   159  148  159 1   
   160  148  160 1   
   161  148  161 1   
   162  162  163 1   
   163  162  171 1   
   164  163  164 1   
   165  163  166 1   
   166  163  172 1   
   167  164  165 2   
   168  164  177 1   
   169  166  167 1   
   170  166  173 1   
   171  166  174 1   
   172  167  168 1   
   173  167  175 1   
   174  167  176 1   
   175  168  169 1   
   176  168  170 1   
   177  177  178 1   
   178  177  182 1   
   179  178  179 1   
   180  178  180 1   
   181  178  181 1   
   182  184  185 1   
   183  184  186 1   
   184  187  188 1   
   185  187  189 1   
   186  190  191 1   
   187  190  192 1   
@<TRIPOS>SUBSTRUCTURE
     1 MOL         1 TEMP              0 ****  ****    0 ROOT
