@<TRIPOS>MOLECULE
MOL
  195   189     1     0     0
SMALL
resp


@<TRIPOS>ATOM
      1 C1         -4.6190   -0.8420    3.0300 c3        1 MOL     -0.495143
      2 C2         -3.7300   -1.6390    1.9700 c         1 MOL      0.589918
      3 O1         -2.5590   -1.2600    1.6890 o         1 MOL     -0.539975
      4 H1         -4.8220    0.1600    2.6540 hc        1 MOL      0.119148
      5 H2         -5.5610   -1.3680    3.1840 hc        1 MOL      0.119148
      6 H3         -4.0810   -0.7730    3.9760 hc        1 MOL      0.119148
      7 N1         -4.2670   -2.7030    1.3770 n         1 MOL     -0.205756
      8 C3         -3.5910   -3.6300    0.3830 c3        1 MOL     -0.213593
      9 C4         -2.1290   -4.0280    0.5870 c         1 MOL      0.788281
     10 O2         -1.3580   -4.0240   -0.3510 o         1 MOL     -0.548282
     11 C5         -3.9880   -3.3510   -1.1320 c3        1 MOL     -0.116825
     12 C6         -5.4210   -3.2760   -1.3400 c         1 MOL      0.754245
     13 O3         -5.9030   -2.7100   -2.3470 o         1 MOL     -0.775482
     14 O4         -6.2580   -3.7690   -0.5680 o         1 MOL     -0.775482
     15 H4         -5.2420   -2.9700    1.4680 hn        1 MOL      0.163019
     16 H5         -4.1150   -4.5390    0.6420 h1        1 MOL      0.078786
     17 H6         -3.5210   -4.1170   -1.7650 hc        1 MOL      0.068785
     18 H7         -3.5460   -2.3840   -1.3850 hc        1 MOL      0.068785
     19 N2         -1.8540   -4.2860    1.8590 n         1 MOL     -0.571787
     20 C7         -0.3940   -4.5110    2.2600 c3        1 MOL     -0.309441
     21 C8          0.1690   -5.7520    1.6080 c         1 MOL      0.605577
     22 O5         -0.5260   -6.7650    1.4540 o         1 MOL     -0.582631
     23 C9          0.0020   -4.4070    3.7700 c3        1 MOL      0.307565
     24 C10        -0.7780   -5.4130    4.6200 c3        1 MOL      0.054101
     25 C11        -0.2110   -2.9660    4.2380 c3        1 MOL     -0.212700
     26 C12        -0.1460   -5.5480    6.0020 c3        1 MOL     -0.177678
     27 H8         -2.5650   -4.1660    2.5670 hn        1 MOL      0.284846
     28 H9          0.1640   -3.6920    1.8290 h1        1 MOL      0.264476
     29 H10         1.0740   -4.5610    3.8950 hc        1 MOL     -0.004310
     30 H11        -0.7040   -6.3760    4.1030 hc        1 MOL     -0.001330
     31 H12        -1.8030   -5.1350    4.8400 hc        1 MOL     -0.001330
     32 H13        -0.9660   -2.4140    3.6800 hc        1 MOL      0.048227
     33 H14        -0.3380   -2.9690    5.3230 hc        1 MOL      0.048227
     34 H15         0.7000   -2.3770    4.1330 hc        1 MOL      0.048227
     35 H16         0.9190   -5.7990    5.9910 hc        1 MOL      0.024860
     36 H17        -0.3020   -4.5640    6.4380 hc        1 MOL      0.024860
     37 H18        -0.6500   -6.3260    6.5710 hc        1 MOL      0.024860
     38 N3          1.4500   -5.7660    1.2530 n         1 MOL     -0.477508
     39 C13         2.3540   -4.7110    0.8640 c3        1 MOL     -0.061391
     40 C14         3.3060   -5.2850   -0.1960 c         1 MOL      0.656150
     41 O6          4.2980   -5.9000    0.0770 o         1 MOL     -0.506268
     42 C15         3.1290   -4.1790    2.0810 c3        1 MOL     -0.189882
     43 C16         4.3050   -3.2390    1.6660 c         1 MOL      0.603188
     44 O7          5.4140   -3.5460    2.1420 o         1 MOL     -0.662231
     45 O8          4.2460   -2.4290    0.6830 o         1 MOL     -0.662231
     46 H19         1.6670   -6.6770    0.8520 hn        1 MOL      0.274160
     47 H20         1.8270   -3.8380    0.4880 h1        1 MOL      0.021469
     48 H21         3.5470   -4.9820    2.6900 hc        1 MOL      0.057002
     49 H22         2.4960   -3.5390    2.6880 hc        1 MOL      0.057002
     50 N4          3.0960   -4.8910   -1.4650 n         1 MOL     -0.472897
     51 C17         3.8160   -5.3260   -2.6240 c3        1 MOL     -0.133814
     52 C18         5.0750   -4.4350   -3.1110 c         1 MOL      0.640604
     53 O9          5.7170   -4.8510   -4.0290 o         1 MOL     -0.595299
     54 H23         2.3160   -4.2820   -1.6690 hn        1 MOL      0.337160
     55 H24         3.1410   -5.4770   -3.4750 h1        1 MOL      0.080101
     56 H25         4.2540   -6.2940   -2.4020 h1        1 MOL      0.080101
     57 N5          5.5030   -3.3640   -2.3930 n         1 MOL     -0.456389
     58 C19         6.6100   -2.4590   -2.8690 c3        1 MOL     -0.002131
     59 C20         7.6350   -1.9410   -1.7450 c         1 MOL      0.396923
     60 O10         8.6810   -1.4720   -2.1130 o         1 MOL     -0.537938
     61 C21         5.8730   -1.3590   -3.6540 c3        1 MOL     -0.265612
     62 C22         4.7090   -0.6920   -2.8420 c         1 MOL      0.700127
     63 O11         3.5350   -1.0550   -2.9960 o         1 MOL     -0.644514
     64 O12         4.9820    0.0910   -1.9230 o         1 MOL     -0.644514
     65 H26         4.9330   -2.9360   -1.6830 hn        1 MOL      0.315637
     66 H27         7.2700   -2.9680   -3.5770 h1        1 MOL      0.123091
     67 H28         5.4380   -1.7550   -4.5740 hc        1 MOL      0.064689
     68 H29         6.5830   -0.5890   -3.9430 hc        1 MOL      0.064689
     69 N6          7.3510   -1.9680   -0.4630 n         1 MOL     -0.184572
     70 C23         8.1540   -1.3420    0.5670 c3        1 MOL     -0.220113
     71 C24         8.3330    0.1430    0.4190 c         1 MOL      0.458782
     72 O13         9.0240    0.7330    1.2950 o         1 MOL     -0.582038
     73 H30         6.5210   -2.4920   -0.2090 hn        1 MOL      0.254388
     74 H31         9.1080   -1.8660    0.5590 h1        1 MOL      0.120893
     75 H32         7.6320   -1.6260    1.4860 h1        1 MOL      0.120893
     76 N7          7.7600    0.7440   -0.5850 n         1 MOL     -0.049997
     77 C25         7.8260    2.1860   -0.7950 c3        1 MOL      0.117196
     78 C26         7.5720    3.0450    0.5160 c         1 MOL      0.408426
     79 O14         8.2240    4.0860    0.7300 o         1 MOL     -0.544820
     80 C27         9.0620    2.5830   -1.6880 c3        1 MOL      0.092528
     81 C28         9.1920    1.7110   -2.8890 c3        1 MOL     -0.032982
     82 C29        10.1820    2.2200   -4.0050 c         1 MOL      0.590285
     83 N8         11.4110    2.4440   -3.7120 n         1 MOL     -0.745400
     84 O15         9.7650    2.3570   -5.1710 o         1 MOL     -0.596199
     85 H33         7.4050    0.1870   -1.3500 hn        1 MOL      0.094989
     86 H34         6.9590    2.3970   -1.4110 h1        1 MOL      0.033440
     87 H35         9.9810    2.6260   -1.1120 hc        1 MOL     -0.036499
     88 H36         8.8640    3.6000   -2.0080 hc        1 MOL     -0.036499
     89 H37         8.1990    1.6850   -3.3180 hc        1 MOL      0.017813
     90 H38         9.5250    0.6970   -2.6780 hc        1 MOL      0.017813
     91 H39        11.8060    2.3240   -2.7880 hn        1 MOL      0.342494
     92 H40        11.9730    2.7090   -4.5110 hn        1 MOL      0.342494
     93 N9          6.6410    2.5250    1.2540 n         1 MOL     -0.231582
     94 C30         6.1210    3.2250    2.4520 c3        1 MOL     -0.266479
     95 C31         4.6060    3.2190    2.5390 c         1 MOL      0.728475
     96 O16         4.0840    3.8930    3.3690 o         1 MOL     -0.587740
     97 C32         6.6500    2.5670    3.7200 c3        1 MOL      0.330111
     98 C33         6.4700    1.0520    3.7610 c3        1 MOL     -0.404155
     99 C34         8.1700    2.8060    4.0590 c3        1 MOL     -0.404155
    100 H41         6.1870    1.6850    0.9110 hn        1 MOL      0.217569
    101 H42         6.4590    4.2660    2.4240 h1        1 MOL      0.150071
    102 H43         6.1240    2.9760    4.5870 hc        1 MOL     -0.028357
    103 H44         7.1720    0.5180    3.1240 hc        1 MOL      0.098186
    104 H45         6.6050    0.6430    4.7610 hc        1 MOL      0.098186
    105 H46         5.5260    0.6850    3.3310 hc        1 MOL      0.098186
    106 H47         8.2600    3.8710    4.2960 hc        1 MOL      0.098186
    107 H48         8.4050    2.2680    4.9760 hc        1 MOL      0.098186
    108 H49         8.7440    2.4040    3.2310 hc        1 MOL      0.098186
    109 N10         3.8630    2.5710    1.6130 n         1 MOL     -0.633188
    110 C35         2.5050    2.1580    1.7980 c3        1 MOL      0.377294
    111 C36         1.5540    2.4530    0.6850 c         1 MOL      0.478674
    112 O17         1.9680    2.4590   -0.4560 o         1 MOL     -0.493497
    113 C37         2.5320    0.7070    2.1580 c3        1 MOL     -0.117737
    114 C38         1.1880    0.1470    2.5180 c         1 MOL      0.542080
    115 N11         0.6420   -0.8400    1.8090 n         1 MOL     -0.630946
    116 O18         0.5440    0.6520    3.4580 o         1 MOL     -0.578887
    117 H50         4.3810    1.9700    0.9880 hn        1 MOL      0.260710
    118 H51         2.1310    2.5970    2.7180 h1        1 MOL     -0.021206
    119 H52         3.1500    0.5840    3.0400 hc        1 MOL      0.048947
    120 H53         2.9890    0.2500    1.2730 hc        1 MOL      0.048947
    121 H54         1.1150   -1.1520    0.9770 hn        1 MOL      0.316302
    122 H55        -0.3240   -1.0880    1.9480 hn        1 MOL      0.316302
    123 N12         0.2870    2.6260    1.0500 n         1 MOL     -0.522693
    124 C39        -0.7290    2.7140    0.0260 c3        1 MOL      0.199411
    125 C40        -1.9610    3.5980    0.4370 c         1 MOL      0.372196
    126 O19        -2.4640    3.6100    1.5760 o         1 MOL     -0.564801
    127 C41        -1.1290    1.2740   -0.4070 c3        1 MOL     -0.250181
    128 C42        -2.1150    1.2540   -1.5780 ca        1 MOL      0.022982
    129 C43        -3.3230    0.5270   -1.3920 ca        1 MOL     -0.133130
    130 C44        -1.8250    1.8840   -2.8220 ca        1 MOL     -0.133130
    131 C45        -4.2890    0.5370   -2.4460 ca        1 MOL     -0.240224
    132 C46        -2.7810    1.9100   -3.8530 ca        1 MOL     -0.240224
    133 C47        -4.0190    1.2520   -3.6320 ca        1 MOL      0.281309
    134 O20        -4.9740    1.3380   -4.5790 oh        1 MOL     -0.568594
    135 H56         0.0660    2.7220    2.0320 hn        1 MOL      0.311808
    136 H57        -0.2270    3.1930   -0.8150 h1        1 MOL      0.012964
    137 H58        -1.5560    0.7520    0.4430 hc        1 MOL      0.131634
    138 H59        -0.2400    0.6930   -0.6830 hc        1 MOL      0.131634
    139 H60        -3.3850   -0.0220   -0.4640 ha        1 MOL      0.142347
    140 H61        -0.9220    2.4510   -2.9990 ha        1 MOL      0.142347
    141 H62        -5.1320   -0.1170   -2.2970 ha        1 MOL      0.151404
    142 H63        -2.5720    2.3950   -4.8040 ha        1 MOL      0.151404
    143 H64        -5.6960    0.7240   -4.4250 ho        1 MOL      0.454816
    144 N13        -2.5290    4.2760   -0.5350 n         1 MOL     -0.195998
    145 C48        -3.6410    5.1800   -0.4700 c3        1 MOL     -0.016711
    146 C49        -4.8420    4.6650   -1.1830 c         1 MOL      0.443214
    147 O21        -4.8580    4.7720   -2.4080 o         1 MOL     -0.524603
    148 C50        -3.2000    6.6080   -1.0180 c3        1 MOL      0.159954
    149 C51        -2.1180    7.3820   -0.1450 c3        1 MOL     -0.128125
    150 C52        -1.9880    8.8530   -0.6560 c         1 MOL      0.587725
    151 O22        -1.4710    9.0050   -1.8060 o         1 MOL     -0.647196
    152 O23        -2.6660    9.7730   -0.0570 o         1 MOL     -0.647196
    153 H65        -2.1230    4.1500   -1.4590 hn        1 MOL      0.223345
    154 H66        -3.8980    5.3450    0.5800 h1        1 MOL      0.103816
    155 H67        -4.0240    7.3160   -1.0510 hc        1 MOL     -0.000987
    156 H68        -2.8660    6.5230   -2.0450 hc        1 MOL     -0.000987
    157 H69        -1.1420    6.9320   -0.3500 hc        1 MOL     -0.004974
    158 H70        -2.4240    7.4050    0.8960 hc        1 MOL     -0.004974
    159 N14        -5.8970    4.1150   -0.5550 n         1 MOL     -0.370252
    160 C53        -5.9550    3.7020    0.8680 c3        1 MOL     -0.468968
    161 C54        -6.1560    4.8970    1.8030 c         1 MOL      0.534575
    162 O24        -6.6460    5.9320    1.4380 o         1 MOL     -0.486376
    163 C55        -7.0290    2.5670    1.0450 c3        1 MOL      0.720774
    164 C56        -6.8050    1.2120    0.3320 c3        1 MOL     -0.179224
    165 C57        -7.9610    0.2230    0.6420 c         1 MOL      0.757871
    166 O25        -9.0780    0.7020    0.8830 o         1 MOL     -0.735295
    167 O26        -7.8330   -0.9910    0.4230 o         1 MOL     -0.735295
    168 H71        -6.6680    3.7710   -1.1030 hn        1 MOL      0.272748
    169 H72        -4.9920    3.2240    1.0610 h1        1 MOL      0.216453
    170 H73        -8.0570    2.9170    0.9590 hc        1 MOL     -0.154125
    171 H74        -6.9900    2.3730    2.1160 hc        1 MOL     -0.154125
    172 H75        -5.8280    0.8090    0.5610 hc        1 MOL     -0.004904
    173 H76        -6.8380    1.3680   -0.7510 hc        1 MOL     -0.004904
    174 N15        -5.7030    4.7690    3.0980 n         1 MOL     -0.275258
    175 C58        -6.0260    5.7750    4.0990 c3        1 MOL     -0.240196
    176 H77        -6.5670    6.5950    3.6280 h1        1 MOL      0.100007
    177 H78        -6.6460    5.3290    4.8760 h1        1 MOL      0.100007
    178 H79        -5.1050    6.1550    4.5430 h1        1 MOL      0.100007
    179 H80        -5.0190    4.0330    3.2500 hn        1 MOL      0.245946
    180 Ca1        -8.5130   -2.6690   -1.3480 Ca        1 MOL      1.679599
    181 O27       -10.6030   -1.1750   -0.2180 oh        1 MOL     -0.771266
    182 H81       -11.2430   -0.4790   -0.3880 ho        1 MOL      0.351488
    183 H82        -9.9140   -0.7590    0.2930 ho        1 MOL      0.351488
    184 O28        -8.4110   -4.2920   -3.6400 oh        1 MOL     -0.771266
    185 H83        -8.6620   -5.1430   -3.2810 ho        1 MOL      0.351488
    186 H84        -8.7010   -4.3190   -4.5450 ho        1 MOL      0.351488
    187 O29        -8.6430   -0.6350   -3.0160 oh        1 MOL     -0.771266
    188 H85        -8.9130    0.2540   -2.8170 ho        1 MOL      0.351488
    189 H86        -8.9720   -0.7890   -3.9070 ho        1 MOL      0.351488
    190 O30        -9.6650   -5.1800   -0.9420 oh        1 MOL     -0.771266
    191 H87       -10.2770   -5.4700   -0.2610 ho        1 MOL      0.351488
    192 H88        -9.7030   -5.8650   -1.5970 ho        1 MOL      0.351488
    193 O31       -10.8710   -2.7490   -2.6660 oh        1 MOL     -0.771266
    194 H89       -11.0820   -2.7020   -3.5960 ho        1 MOL      0.351488
    195 H90       -11.4810   -3.3950   -2.3120 ho        1 MOL      0.351488
@<TRIPOS>BOND
     1    1    2 1   
     2    1    4 1   
     3    1    5 1   
     4    1    6 1   
     5    2    3 2   
     6    2    7 1   
     7    7    8 1   
     8    7   15 1   
     9    8    9 1   
    10    8   11 1   
    11    8   16 1   
    12    9   10 2   
    13    9   19 1   
    14   11   12 1   
    15   11   17 1   
    16   11   18 1   
    17   12   13 1   
    18   12   14 1   
    19   19   20 1   
    20   19   27 1   
    21   20   21 1   
    22   20   23 1   
    23   20   28 1   
    24   21   22 2   
    25   21   38 1   
    26   23   24 1   
    27   23   25 1   
    28   23   29 1   
    29   24   26 1   
    30   24   30 1   
    31   24   31 1   
    32   25   32 1   
    33   25   33 1   
    34   25   34 1   
    35   26   35 1   
    36   26   36 1   
    37   26   37 1   
    38   38   39 1   
    39   38   46 1   
    40   39   40 1   
    41   39   42 1   
    42   39   47 1   
    43   40   41 2   
    44   40   50 1   
    45   42   43 1   
    46   42   48 1   
    47   42   49 1   
    48   43   44 1   
    49   43   45 1   
    50   50   51 1   
    51   50   54 1   
    52   51   52 1   
    53   51   55 1   
    54   51   56 1   
    55   52   53 2   
    56   52   57 1   
    57   57   58 1   
    58   57   65 1   
    59   58   59 1   
    60   58   61 1   
    61   58   66 1   
    62   59   60 2   
    63   59   69 1   
    64   61   62 1   
    65   61   67 1   
    66   61   68 1   
    67   62   63 1   
    68   62   64 1   
    69   69   70 1   
    70   69   73 1   
    71   70   71 1   
    72   70   74 1   
    73   70   75 1   
    74   71   72 2   
    75   71   76 1   
    76   76   77 1   
    77   76   85 1   
    78   77   78 1   
    79   77   80 1   
    80   77   86 1   
    81   78   79 2   
    82   78   93 1   
    83   80   81 1   
    84   80   87 1   
    85   80   88 1   
    86   81   82 1   
    87   81   89 1   
    88   81   90 1   
    89   82   83 1   
    90   82   84 2   
    91   83   91 1   
    92   83   92 1   
    93   93   94 1   
    94   93  100 1   
    95   94   95 1   
    96   94   97 1   
    97   94  101 1   
    98   95   96 2   
    99   95  109 1   
   100   97   98 1   
   101   97   99 1   
   102   97  102 1   
   103   98  103 1   
   104   98  104 1   
   105   98  105 1   
   106   99  106 1   
   107   99  107 1   
   108   99  108 1   
   109  109  110 1   
   110  109  117 1   
   111  110  111 1   
   112  110  113 1   
   113  110  118 1   
   114  111  112 2   
   115  111  123 1   
   116  113  114 1   
   117  113  119 1   
   118  113  120 1   
   119  114  115 1   
   120  114  116 2   
   121  115  121 1   
   122  115  122 1   
   123  123  124 1   
   124  123  135 1   
   125  124  125 1   
   126  124  127 1   
   127  124  136 1   
   128  125  126 2   
   129  125  144 1   
   130  127  128 1   
   131  127  137 1   
   132  127  138 1   
   133  128  129 ar  
   134  128  130 ar  
   135  129  131 ar  
   136  129  139 1   
   137  130  132 ar  
   138  130  140 1   
   139  131  133 ar  
   140  131  141 1   
   141  132  133 ar  
   142  132  142 1   
   143  133  134 1   
   144  134  143 1   
   145  144  145 1   
   146  144  153 1   
   147  145  146 1   
   148  145  148 1   
   149  145  154 1   
   150  146  147 2   
   151  146  159 1   
   152  148  149 1   
   153  148  155 1   
   154  148  156 1   
   155  149  150 1   
   156  149  157 1   
   157  149  158 1   
   158  150  151 1   
   159  150  152 1   
   160  159  160 1   
   161  159  168 1   
   162  160  161 1   
   163  160  163 1   
   164  160  169 1   
   165  161  162 2   
   166  161  174 1   
   167  163  164 1   
   168  163  170 1   
   169  163  171 1   
   170  164  165 1   
   171  164  172 1   
   172  164  173 1   
   173  165  166 1   
   174  165  167 1   
   175  174  175 1   
   176  174  179 1   
   177  175  176 1   
   178  175  177 1   
   179  175  178 1   
   180  181  182 1   
   181  181  183 1   
   182  184  185 1   
   183  184  186 1   
   184  187  188 1   
   185  187  189 1   
   186  190  191 1   
   187  190  192 1   
   188  193  194 1   
   189  193  195 1   
@<TRIPOS>SUBSTRUCTURE
     1 MOL         1 TEMP              0 ****  ****    0 ROOT
