@<TRIPOS>MOLECULE
MOL
  191   184     1     0     0
SMALL
resp


@<TRIPOS>ATOM
      1 C1         -6.1700   -2.0610    4.1350 c3        1 MOL     -0.296298
      2 C2         -6.0460   -2.0690    2.6060 c         1 MOL      0.480189
      3 O1         -5.4750   -1.0640    2.0540 o         1 MOL     -0.556274
      4 H1         -6.3650   -3.0730    4.4890 hc        1 MOL      0.084321
      5 H2         -5.2410   -1.6960    4.5730 hc        1 MOL      0.084321
      6 H3         -6.9920   -1.4090    4.4300 hc        1 MOL      0.084321
      7 N1         -6.6950   -2.9990    1.9490 n         1 MOL     -0.385866
      8 C3         -7.3100   -2.8660    0.5680 c3        1 MOL      0.075184
      9 C4         -8.1380   -1.5760    0.2480 c         1 MOL      0.179679
     10 O2         -9.1120   -1.6770   -0.5170 o         1 MOL     -0.446845
     11 C5         -6.1900   -3.0370   -0.4930 c3        1 MOL     -0.308182
     12 C6         -6.7700   -3.0140   -1.8560 c         1 MOL      0.785365
     13 O3         -7.4070   -4.0100   -2.2920 o         1 MOL     -0.665043
     14 O4         -6.4590   -2.1020   -2.6130 o         1 MOL     -0.665043
     15 H4         -7.0960   -3.7530    2.4800 hn        1 MOL      0.302130
     16 H5         -7.8880   -3.7850    0.4700 h1        1 MOL      0.106242
     17 H6         -5.6490   -3.9780   -0.4040 hc        1 MOL      0.099385
     18 H7         -5.4400   -2.2550   -0.4230 hc        1 MOL      0.099385
     19 N2         -7.7610   -0.3700    0.6320 n         1 MOL      0.042451
     20 C7         -8.1960    0.9240    0.2090 c3        1 MOL      0.066344
     21 C8         -7.2550    1.7100   -0.6570 c         1 MOL      0.591178
     22 O5         -7.6130    2.8110   -1.1100 o         1 MOL     -0.584727
     23 C9         -8.5300    1.7420    1.5150 c3        1 MOL     -0.273213
     24 C10        -7.3640    2.0690    2.3660 c3        1 MOL      0.188188
     25 C11        -7.8000    2.9480    3.5750 c3        1 MOL     -0.181318
     26 C12        -6.5070    3.3070    4.2440 c3        1 MOL      0.100301
     27 N3         -6.7750    3.9730    5.6080 n4        1 MOL     -0.115997
     28 H8         -7.0370   -0.4640    1.3260 hn        1 MOL      0.070279
     29 H9         -9.0880    0.8290   -0.3990 h1        1 MOL      0.082738
     30 H10        -9.1010    1.0920    2.1840 hc        1 MOL      0.053680
     31 H11        -9.0090    2.6600    1.1960 hc        1 MOL      0.053680
     32 H12        -6.6320    2.5760    1.7300 hc        1 MOL      0.020734
     33 H13        -6.8840    1.1690    2.7570 hc        1 MOL      0.020734
     34 H14        -8.2950    2.3190    4.3170 hc        1 MOL      0.078195
     35 H15        -8.3380    3.8490    3.2770 hc        1 MOL      0.078195
     36 H16        -5.9120    4.0450    3.7100 hx        1 MOL      0.032201
     37 H17        -5.9730    2.3670    4.4090 hx        1 MOL      0.032201
     38 H18        -7.2910    4.8380    5.5660 hn        1 MOL      0.177238
     39 H19        -7.2190    3.3850    6.3010 hn        1 MOL      0.177238
     40 H20        -5.8430    4.2150    5.9150 hn        1 MOL      0.177238
     41 N4         -6.0150    1.2630   -0.7590 n         1 MOL     -0.293818
     42 C13        -4.8210    2.0330   -1.0320 c3        1 MOL     -0.229731
     43 C14        -4.3310    1.9120   -2.4790 c         1 MOL      0.660282
     44 O6         -4.4330    0.8280   -3.0610 o         1 MOL     -0.488960
     45 C15        -3.8300    1.4670   -0.0220 c3        1 MOL      0.238785
     46 C16        -2.4680    2.1470   -0.0030 c         1 MOL      0.714724
     47 O7         -1.7580    2.2160   -1.0080 o         1 MOL     -0.793808
     48 O8         -2.2060    2.7930    1.0050 o         1 MOL     -0.793808
     49 H21        -5.9070    0.2830   -0.5240 hn        1 MOL      0.148529
     50 H22        -4.8930    3.1030   -0.8220 h1        1 MOL      0.074763
     51 H23        -3.6110    0.3950   -0.1240 hc        1 MOL     -0.049462
     52 H24        -4.2460    1.5080    0.9730 hc        1 MOL     -0.049462
     53 N5         -3.6750    2.8960   -3.0360 n         1 MOL     -0.478227
     54 C17        -3.1310    2.9080   -4.4020 c3        1 MOL     -0.064884
     55 C18        -1.9040    2.0590   -4.7270 c         1 MOL      0.383233
     56 O9         -1.5710    1.8220   -5.9090 o         1 MOL     -0.559663
     57 H25        -3.5050    3.6870   -2.4430 hn        1 MOL      0.283711
     58 H26        -2.8820    3.9510   -4.5770 h1        1 MOL      0.099567
     59 H27        -3.9480    2.6380   -5.0780 h1        1 MOL      0.099567
     60 N6         -1.3300    1.3950   -3.7720 n         1 MOL      0.027854
     61 C19        -0.3390    0.3630   -4.0070 c3        1 MOL     -0.053412
     62 C20        -0.9550   -0.9880   -3.6900 c         1 MOL      0.485538
     63 O10        -0.1600   -1.9870   -3.5570 o         1 MOL     -0.561438
     64 C21         0.9400    0.7600   -3.1880 c3        1 MOL     -0.357299
     65 C22         1.3430    2.1760   -3.3160 c         1 MOL      0.601948
     66 N7          1.9000    2.5590   -4.4700 n         1 MOL     -0.719833
     67 O11         1.2290    3.0430   -2.3560 o         1 MOL     -0.638062
     68 H28        -1.5100    1.6850   -2.8230 hn        1 MOL      0.053423
     69 H29        -0.1130    0.2690   -5.0750 h1        1 MOL      0.115082
     70 H30         1.8100    0.1390   -3.4110 hc        1 MOL      0.188100
     71 H31         0.7420    0.5430   -2.1370 hc        1 MOL      0.188100
     72 H32         2.0930    1.8880   -5.2010 hn        1 MOL      0.376604
     73 H33         2.2500    3.5030   -4.5170 hn        1 MOL      0.376604
     74 N8         -2.2070   -1.1110   -3.4840 n         1 MOL     -0.271315
     75 C23        -2.8800   -2.3470   -3.2450 c3        1 MOL     -0.000895
     76 C24        -2.8280   -2.8860   -1.8010 c         1 MOL      0.365700
     77 O12        -3.3260   -3.9450   -1.5730 o         1 MOL     -0.478863
     78 H34        -2.8020   -0.3080   -3.6780 hn        1 MOL      0.237318
     79 H35        -2.6240   -3.0470   -4.0330 h1        1 MOL      0.102500
     80 H36        -3.9380   -2.1490   -3.4330 h1        1 MOL      0.102500
     81 N9         -1.9520   -2.3220   -0.9780 n         1 MOL     -0.143399
     82 C25        -1.4580   -2.8610    0.2660 c3        1 MOL     -0.063193
     83 C26        -0.0890   -2.1390    0.4980 c         1 MOL      0.294930
     84 O13         0.1090   -0.9400    0.2280 o         1 MOL     -0.534966
     85 C27        -2.5570   -2.6010    1.3520 c3        1 MOL     -0.059622
     86 C28        -2.1000   -2.5870    2.8330 ca        1 MOL      0.144513
     87 C29        -1.6130   -3.7680    3.4730 ca        1 MOL     -0.179282
     88 C30        -2.2220   -1.4490    3.5860 ca        1 MOL     -0.179282
     89 C31        -1.2180   -3.7730    4.8420 ca        1 MOL     -0.310893
     90 C32        -1.9250   -1.4830    4.9710 ca        1 MOL     -0.310893
     91 C33        -1.4410   -2.6330    5.5660 ca        1 MOL      0.403547
     92 O14        -1.1560   -2.4810    6.8770 oh        1 MOL     -0.478168
     93 H37        -1.4930   -1.5030   -1.3630 hn        1 MOL      0.203376
     94 H38        -1.2980   -3.9370    0.1790 h1        1 MOL      0.094259
     95 H39        -3.4060   -3.2780    1.2330 hc        1 MOL      0.070452
     96 H40        -2.9470   -1.5930    1.1650 hc        1 MOL      0.070452
     97 H41        -1.5560   -4.6540    2.8500 ha        1 MOL      0.129485
     98 H42        -2.6190   -0.5580    3.1290 ha        1 MOL      0.129485
     99 H43        -0.9400   -4.7540    5.2130 ha        1 MOL      0.167042
    100 H44        -2.0730   -0.5920    5.5690 ha        1 MOL      0.167042
    101 H45        -1.5320   -1.6270    7.1130 ho        1 MOL      0.325070
    102 N10         0.8530   -2.9760    0.8800 n         1 MOL     -0.087952
    103 C34         2.2710   -2.5800    1.1940 c3        1 MOL     -0.222206
    104 C35         2.8690   -2.1540   -0.1850 c         1 MOL      0.358566
    105 O15         3.4540   -1.1060   -0.3150 o         1 MOL     -0.529047
    106 C36         3.1030   -3.6490    1.9490 c3        1 MOL      0.014022
    107 C37         2.3630   -3.9610    3.2690 c3        1 MOL      0.150739
    108 C38         4.5480   -3.1550    2.0620 c3        1 MOL     -0.148781
    109 C39         2.4040   -2.9080    4.3790 c3        1 MOL     -0.283175
    110 H46         0.5180   -3.8990    1.1030 hn        1 MOL      0.191368
    111 H47         2.2590   -1.6870    1.8110 h1        1 MOL      0.183158
    112 H48         3.2000   -4.5800    1.3990 hc        1 MOL     -0.010809
    113 H49         2.7930   -4.8800    3.6610 hc        1 MOL     -0.007080
    114 H50         1.2890   -4.1680    3.1610 hc        1 MOL     -0.007080
    115 H51         4.5600   -2.1830    2.5590 hc        1 MOL      0.058479
    116 H52         5.1000   -3.8170    2.7270 hc        1 MOL      0.058479
    117 H53         5.0660   -3.0900    1.0990 hc        1 MOL      0.058479
    118 H54         1.6480   -3.1650    5.1230 hc        1 MOL      0.075437
    119 H55         3.3430   -3.0230    4.9320 hc        1 MOL      0.075437
    120 H56         2.2330   -1.9140    3.9780 hc        1 MOL      0.075437
    121 N11         2.6370   -2.9800   -1.1670 n         1 MOL      0.062475
    122 C40         3.0010   -2.9280   -2.6160 c3        1 MOL     -0.264640
    123 C41         4.5520   -2.9310   -2.7880 c         1 MOL      0.448745
    124 O16         5.0420   -2.2760   -3.7080 o         1 MOL     -0.495343
    125 C42         2.3950   -4.0880   -3.4460 c3        1 MOL      0.230572
    126 O17         1.0370   -4.2520   -2.9890 oh        1 MOL     -0.593328
    127 H57         1.9480   -3.7030   -1.0040 hn        1 MOL      0.095404
    128 H58         2.5870   -1.9900   -2.9760 h1        1 MOL      0.118827
    129 H59         2.9010   -5.0460   -3.3390 h1        1 MOL      0.050377
    130 H60         2.4500   -3.8540   -4.5110 h1        1 MOL      0.050377
    131 H61         0.5440   -3.4590   -3.2120 ho        1 MOL      0.358085
    132 N12         5.3350   -3.6040   -1.9390 n         1 MOL     -0.433948
    133 C43         6.7550   -3.6690   -1.8960 c3        1 MOL      0.193561
    134 C44         7.4780   -2.3460   -1.8090 c         1 MOL      0.413174
    135 O18         8.6870   -2.2850   -2.1460 o         1 MOL     -0.534661
    136 C45         7.2520   -4.4940   -3.0480 c3        1 MOL     -0.352465
    137 H62         4.8090   -3.9800   -1.1570 hn        1 MOL      0.245630
    138 H63         6.9800   -4.1560   -0.9420 h1        1 MOL      0.063296
    139 H64         7.0020   -4.0390   -3.9980 hc        1 MOL      0.107778
    140 H65         8.3350   -4.6210   -3.0910 hc        1 MOL      0.107778
    141 H66         6.9120   -5.5230   -2.9930 hc        1 MOL      0.107778
    142 N13         6.8050   -1.2660   -1.3670 n         1 MOL     -0.374417
    143 C46         7.3750    0.0790   -1.1860 c3        1 MOL      0.459764
    144 C47         7.3830    0.3890    0.3260 c         1 MOL      0.356684
    145 O19         6.5840   -0.1010    1.1230 o         1 MOL     -0.467724
    146 C48         6.5780    1.0840   -2.0390 c3        1 MOL     -0.224625
    147 H67         5.8550   -1.3900   -1.0510 hn        1 MOL      0.229484
    148 H68         8.3820    0.1050   -1.6050 h1        1 MOL     -0.030706
    149 H69         5.5190    0.9990   -1.7860 hc        1 MOL      0.051947
    150 H70         6.9620    2.0940   -1.9350 hc        1 MOL      0.051947
    151 H71         6.6430    0.7970   -3.0970 hc        1 MOL      0.051947
    152 N14         8.3850    1.1860    0.6500 n         1 MOL     -0.509304
    153 C49         8.6770    1.7010    2.0510 c3        1 MOL     -0.205738
    154 C50         8.9610    0.5710    3.0080 c         1 MOL      0.530418
    155 O20         8.6610    0.6950    4.2170 o         1 MOL     -0.506981
    156 C51         7.6640    2.6710    2.4770 c3        1 MOL      0.245481
    157 C52         7.7060    3.9610    1.5360 c3        1 MOL     -0.228626
    158 C53         8.9670    4.8320    1.8510 c         1 MOL      0.661028
    159 O21         9.2460    5.2370    2.9930 o         1 MOL     -0.640824
    160 O22         9.6740    5.1820    0.8500 o         1 MOL     -0.640824
    161 H72         8.9560    1.5480   -0.0920 hn        1 MOL      0.323823
    162 H73         9.5790    2.2990    1.9740 h1        1 MOL      0.152403
    163 H74         7.8020    3.1000    3.4770 hc        1 MOL     -0.014252
    164 H75         6.6460    2.2880    2.5240 hc        1 MOL     -0.014252
    165 H76         6.7510    4.4690    1.6870 hc        1 MOL      0.016263
    166 H77         7.6970    3.7140    0.4700 hc        1 MOL      0.016263
    167 N15         9.5190   -0.5970    2.5260 n         1 MOL     -0.334731
    168 C54         9.7120   -1.8110    3.3200 c3        1 MOL     -0.080520
    169 H78         8.8740   -1.9320    4.0070 h1        1 MOL      0.068532
    170 H79         9.7660   -2.6750    2.6570 h1        1 MOL      0.068532
    171 H80        10.6380   -1.7300    3.8880 h1        1 MOL      0.068532
    172 H81         9.4890   -0.6590    1.5250 hn        1 MOL      0.228701
    173 Ca1        -0.1660    4.0650   -0.3090 Ca        1 MOL      1.887631
    174 O23         0.1740    4.7700    2.1830 oh        1 MOL     -0.870743
    175 H82         0.9340    4.6730    2.7550 ho        1 MOL      0.426641
    176 H83        -0.3650    5.4370    2.6050 ho        1 MOL      0.426641
    177 O24        -1.3080    5.2040   -2.4410 oh        1 MOL     -0.870743
    178 H84        -2.1560    5.6380   -2.5140 ho        1 MOL      0.426641
    179 H85        -0.7840    5.5950   -3.1430 ho        1 MOL      0.426641
    180 O25        -2.1890    5.7970    0.4550 oh        1 MOL     -0.870743
    181 H86        -3.0710    5.6520    0.7840 ho        1 MOL      0.426641
    182 H87        -2.0030    6.7130    0.6560 ho        1 MOL      0.426641
    183 O26         0.7070    6.4390   -0.8930 oh        1 MOL     -0.870743
    184 H88         0.3210    7.3180   -0.8810 ho        1 MOL      0.426641
    185 H89         1.4710    6.5270   -1.4490 ho        1 MOL      0.426641
    186 O27         2.4830    4.3550    0.1650 oh        1 MOL     -0.870743
    187 H90         3.1290    4.3240   -0.5420 ho        1 MOL      0.426641
    188 H91         2.9340    3.9740    0.9140 ho        1 MOL      0.426641
    189 O28         0.7260    1.6010    0.7050 oh        1 MOL     -0.870743
    190 H92         0.4160    0.7350    0.4180 ho        1 MOL      0.426641
    191 H93         0.9660    1.4640    1.6250 ho        1 MOL      0.426641
@<TRIPOS>BOND
     1    1    2 1   
     2    1    4 1   
     3    1    5 1   
     4    1    6 1   
     5    2    3 2   
     6    2    7 1   
     7    7    8 1   
     8    7   15 1   
     9    8    9 1   
    10    8   11 1   
    11    8   16 1   
    12    9   10 2   
    13    9   19 1   
    14   11   12 1   
    15   11   17 1   
    16   11   18 1   
    17   12   13 1   
    18   12   14 1   
    19   19   20 1   
    20   19   28 1   
    21   20   21 1   
    22   20   23 1   
    23   20   29 1   
    24   21   22 2   
    25   21   41 1   
    26   23   24 1   
    27   23   30 1   
    28   23   31 1   
    29   24   25 1   
    30   24   32 1   
    31   24   33 1   
    32   25   26 1   
    33   25   34 1   
    34   25   35 1   
    35   26   27 1   
    36   26   36 1   
    37   26   37 1   
    38   27   38 1   
    39   27   39 1   
    40   27   40 1   
    41   41   42 1   
    42   41   49 1   
    43   42   43 1   
    44   42   45 1   
    45   42   50 1   
    46   43   44 2   
    47   43   53 1   
    48   45   46 1   
    49   45   51 1   
    50   45   52 1   
    51   46   47 1   
    52   46   48 1   
    53   53   54 1   
    54   53   57 1   
    55   54   55 1   
    56   54   58 1   
    57   54   59 1   
    58   55   56 2   
    59   55   60 1   
    60   60   61 1   
    61   60   68 1   
    62   61   62 1   
    63   61   64 1   
    64   61   69 1   
    65   62   63 2   
    66   62   74 1   
    67   64   65 1   
    68   64   70 1   
    69   64   71 1   
    70   65   66 1   
    71   65   67 2   
    72   66   72 1   
    73   66   73 1   
    74   74   75 1   
    75   74   78 1   
    76   75   76 1   
    77   75   79 1   
    78   75   80 1   
    79   76   77 2   
    80   76   81 1   
    81   81   82 1   
    82   81   93 1   
    83   82   83 1   
    84   82   85 1   
    85   82   94 1   
    86   83   84 2   
    87   83  102 1   
    88   85   86 1   
    89   85   95 1   
    90   85   96 1   
    91   86   87 ar  
    92   86   88 ar  
    93   87   89 ar  
    94   87   97 1   
    95   88   90 ar  
    96   88   98 1   
    97   89   91 ar  
    98   89   99 1   
    99   90   91 ar  
   100   90  100 1   
   101   91   92 1   
   102   92  101 1   
   103  102  103 1   
   104  102  110 1   
   105  103  104 1   
   106  103  106 1   
   107  103  111 1   
   108  104  105 2   
   109  104  121 1   
   110  106  107 1   
   111  106  108 1   
   112  106  112 1   
   113  107  109 1   
   114  107  113 1   
   115  107  114 1   
   116  108  115 1   
   117  108  116 1   
   118  108  117 1   
   119  109  118 1   
   120  109  119 1   
   121  109  120 1   
   122  121  122 1   
   123  121  127 1   
   124  122  123 1   
   125  122  125 1   
   126  122  128 1   
   127  123  124 2   
   128  123  132 1   
   129  125  126 1   
   130  125  129 1   
   131  125  130 1   
   132  126  131 1   
   133  132  133 1   
   134  132  137 1   
   135  133  134 1   
   136  133  136 1   
   137  133  138 1   
   138  134  135 2   
   139  134  142 1   
   140  136  139 1   
   141  136  140 1   
   142  136  141 1   
   143  142  143 1   
   144  142  147 1   
   145  143  144 1   
   146  143  146 1   
   147  143  148 1   
   148  144  145 2   
   149  144  152 1   
   150  146  149 1   
   151  146  150 1   
   152  146  151 1   
   153  152  153 1   
   154  152  161 1   
   155  153  154 1   
   156  153  156 1   
   157  153  162 1   
   158  154  155 2   
   159  154  167 1   
   160  156  157 1   
   161  156  163 1   
   162  156  164 1   
   163  157  158 1   
   164  157  165 1   
   165  157  166 1   
   166  158  159 1   
   167  158  160 1   
   168  167  168 1   
   169  167  172 1   
   170  168  169 1   
   171  168  170 1   
   172  168  171 1   
   173  174  175 1   
   174  174  176 1   
   175  177  178 1   
   176  177  179 1   
   177  180  181 1   
   178  180  182 1   
   179  183  184 1   
   180  183  185 1   
   181  186  187 1   
   182  186  188 1   
   183  189  190 1   
   184  189  191 1   
@<TRIPOS>SUBSTRUCTURE
     1 MOL         1 TEMP              0 ****  ****    0 ROOT
