@<TRIPOS>MOLECULE
MOL
  201   193     1     0     0
SMALL
resp


@<TRIPOS>ATOM
      1 C1         -4.0880   -3.6030    3.6950 c3        1 MOL     -0.419916
      2 C2         -2.9600   -3.5140    2.6330 c         1 MOL      0.875646
      3 O1         -2.3350   -2.4680    2.5990 o         1 MOL     -0.592100
      4 H1         -4.1480   -2.6620    4.2400 hc        1 MOL      0.094161
      5 H2         -5.0390   -3.7970    3.2010 hc        1 MOL      0.094161
      6 H3         -3.8690   -4.4120    4.3930 hc        1 MOL      0.094161
      7 N1         -2.7830   -4.5500    1.8550 n         1 MOL     -0.681819
      8 C3         -1.8950   -4.5270    0.6510 c3        1 MOL      0.394769
      9 C4         -0.4220   -4.2710    0.9070 c         1 MOL      0.447788
     10 O2          0.2190   -3.5250    0.1590 o         1 MOL     -0.500090
     11 C5         -2.4070   -3.4430   -0.3490 c3        1 MOL     -0.871703
     12 C6         -3.8340   -3.6730   -0.7400 c         1 MOL      1.177392
     13 O3         -4.5170   -2.6700   -1.0170 o         1 MOL     -0.861126
     14 O4         -4.4060   -4.8340   -0.7610 o         1 MOL     -0.861126
     15 H4         -3.2750   -5.4160    2.0130 hn        1 MOL      0.317479
     16 H5         -2.0160   -5.5480    0.3010 h1        1 MOL      0.028684
     17 H6         -1.7550   -3.3810   -1.2120 hc        1 MOL      0.227930
     18 H7         -2.3320   -2.5210    0.2300 hc        1 MOL      0.227930
     19 N2          0.0130   -4.7090    2.0940 n         1 MOL     -0.475232
     20 C7          1.3660   -4.5530    2.5990 c3        1 MOL      0.041299
     21 C8          2.2550   -5.7650    2.1720 c         1 MOL      0.504919
     22 O5          1.7940   -6.9180    2.1150 o         1 MOL     -0.580861
     23 C9          1.3350   -4.3980    4.1300 c3        1 MOL      0.083607
     24 C10         0.4160   -3.1920    4.4160 c3        1 MOL      0.037327
     25 C11         2.7820   -4.1330    4.7060 c3        1 MOL     -0.278880
     26 C12         0.2490   -2.9150    5.9290 c3        1 MOL     -0.191147
     27 H8         -0.6950   -5.1650    2.6410 hn        1 MOL      0.245516
     28 H9          1.8210   -3.6080    2.2640 h1        1 MOL      0.095724
     29 H10         0.8390   -5.2710    4.5500 hc        1 MOL      0.000028
     30 H11        -0.6280   -3.4200    4.1760 hc        1 MOL      0.037155
     31 H12         0.7430   -2.3150    3.8580 hc        1 MOL      0.037155
     32 H13         2.7320   -4.2210    5.7980 hc        1 MOL      0.070120
     33 H14         3.4620   -4.8360    4.2460 hc        1 MOL      0.070120
     34 H15         3.0460   -3.0870    4.5390 hc        1 MOL      0.070120
     35 H16        -0.5180   -2.1600    6.1300 hc        1 MOL      0.038660
     36 H17        -0.0230   -3.8820    6.3480 hc        1 MOL      0.038660
     37 H18         1.1620   -2.6310    6.4690 hc        1 MOL      0.038660
     38 N3          3.4680   -5.4750    1.6530 n         1 MOL     -0.344021
     39 C13         4.2330   -4.2240    1.4770 c3        1 MOL     -0.060381
     40 C14         3.9260   -3.5590    0.0850 c         1 MOL      0.332844
     41 O6          4.2900   -2.3980   -0.0810 o         1 MOL     -0.496573
     42 C15         5.7330   -4.5220    1.6570 c3        1 MOL     -0.181340
     43 C16         6.2420   -5.7520    0.8210 c         1 MOL      0.705340
     44 O7          6.6530   -6.7140    1.4620 o         1 MOL     -0.709621
     45 O8          6.1900   -5.6570   -0.4410 o         1 MOL     -0.709621
     46 H19         3.9470   -6.3470    1.5280 hn        1 MOL      0.258826
     47 H20         3.8410   -3.6120    2.3000 h1        1 MOL      0.085998
     48 H21         5.9540   -4.5860    2.7220 hc        1 MOL      0.047144
     49 H22         6.3740   -3.6860    1.3920 hc        1 MOL      0.047144
     50 N4          3.2780   -4.2120   -0.8370 n         1 MOL     -0.033955
     51 C17         2.8100   -3.5340   -1.9910 c3        1 MOL     -0.318546
     52 C18         3.8570   -3.2120   -3.0660 c         1 MOL      0.568392
     53 O9          4.1710   -4.0680   -3.9010 o         1 MOL     -0.582576
     54 H23         3.0180   -5.1670   -0.6620 hn        1 MOL      0.232738
     55 H24         2.3800   -2.5520   -1.8080 h1        1 MOL      0.109726
     56 H25         2.1510   -4.2190   -2.5130 h1        1 MOL      0.109726
     57 N5          4.3740   -1.9910   -3.0110 n         1 MOL     -0.270721
     58 C19         5.3480   -1.3320   -3.8210 c3        1 MOL      0.057455
     59 C20         6.6060   -0.9700   -3.0360 c         1 MOL      0.425559
     60 O10         7.4550   -0.3420   -3.6610 o         1 MOL     -0.563058
     61 C21         4.6770   -0.1860   -4.5430 c3        1 MOL     -0.120896
     62 C22         3.8640    0.8360   -3.7240 c         1 MOL      0.715522
     63 O11         4.2060    1.0400   -2.5100 o         1 MOL     -0.689957
     64 O12         2.8610    1.4140   -4.2620 o         1 MOL     -0.689957
     65 H26         3.9850   -1.3700   -2.3240 hn        1 MOL      0.210805
     66 H27         5.5750   -2.0110   -4.6380 h1        1 MOL      0.072661
     67 H28         3.9060   -0.7100   -5.1190 hc        1 MOL      0.000715
     68 H29         5.3620    0.3620   -5.1910 hc        1 MOL      0.000715
     69 N6          6.6980   -1.2860   -1.7590 n         1 MOL     -0.275544
     70 C23         7.8010   -1.0080   -0.7930 c3        1 MOL     -0.166100
     71 C24         7.8760    0.4770   -0.3570 c         1 MOL      0.393202
     72 O13         8.6830    0.7880    0.5490 o         1 MOL     -0.574110
     73 H30         5.8900   -1.6900   -1.3020 hn        1 MOL      0.218925
     74 H31         8.7970   -1.2960   -1.1510 h1        1 MOL      0.125512
     75 H32         7.5890   -1.6410    0.0740 h1        1 MOL      0.125512
     76 N7          7.0500    1.3200   -0.9500 n         1 MOL      0.187662
     77 C25         7.1030    2.8340   -0.8250 c3        1 MOL     -0.268531
     78 C26         6.7540    3.4250    0.5400 c         1 MOL      0.648686
     79 O14         7.1130    4.5200    0.9500 o         1 MOL     -0.538724
     80 C27         8.3960    3.4110   -1.4020 c3        1 MOL      0.084924
     81 C28         8.6180    2.9010   -2.8190 c3        1 MOL     -0.005334
     82 C29         9.6390    3.6730   -3.6370 c         1 MOL      0.592882
     83 N8         10.0860    3.1220   -4.7640 n         1 MOL     -0.811470
     84 O15        10.0490    4.7540   -3.3200 o         1 MOL     -0.564103
     85 H33         6.3820    0.9360   -1.6080 hn        1 MOL      0.048912
     86 H34         6.4840    3.3710   -1.5370 h1        1 MOL      0.150704
     87 H35         9.2740    3.1100   -0.8350 hc        1 MOL     -0.008678
     88 H36         8.3130    4.4990   -1.3930 hc        1 MOL     -0.008678
     89 H37         7.7130    2.9070   -3.4130 hc        1 MOL      0.021179
     90 H38         8.8460    1.8370   -2.7320 hc        1 MOL      0.021179
     91 H39         9.8990    2.1620   -5.0150 hn        1 MOL      0.352350
     92 H40        10.5050    3.7940   -5.3970 hn        1 MOL      0.352350
     93 N9          5.9220    2.6360    1.2690 n         1 MOL     -0.393253
     94 C30         5.4990    2.8070    2.6890 c3        1 MOL     -0.229107
     95 C31         3.9500    2.9310    2.8070 c         1 MOL      0.738854
     96 O16         3.5170    3.7650    3.6140 o         1 MOL     -0.589978
     97 C32         6.1790    1.7500    3.6360 c3        1 MOL      0.353123
     98 C33         6.1150    0.2510    3.2080 c3        1 MOL     -0.467812
     99 C34         7.6450    2.1640    3.8900 c3        1 MOL     -0.467812
    100 H41         5.6580    1.7810    0.7940 hn        1 MOL      0.123051
    101 H42         5.8560    3.7830    3.0100 h1        1 MOL      0.130891
    102 H43         5.6570    1.8120    4.6000 hc        1 MOL     -0.035334
    103 H44         5.1160    0.0210    2.8550 hc        1 MOL      0.116827
    104 H45         6.6180    0.0150    2.2770 hc        1 MOL      0.116827
    105 H46         6.5490   -0.4180    3.9540 hc        1 MOL      0.116827
    106 H47         8.1170    1.3330    4.4150 hc        1 MOL      0.116827
    107 H48         8.1930    2.4590    2.9950 hc        1 MOL      0.116827
    108 H49         7.5810    2.9940    4.5880 hc        1 MOL      0.116827
    109 N10         3.2680    2.1020    2.0790 n         1 MOL     -0.602094
    110 C35         1.8140    2.0740    1.9140 c3        1 MOL      0.024608
    111 C36         1.2810    3.1630    0.9030 c         1 MOL      0.553222
    112 O17         2.0380    3.8080    0.1110 o         1 MOL     -0.515498
    113 C37         1.3180    0.6990    1.4060 c3        1 MOL     -0.007169
    114 C38        -0.0570    0.2720    1.8670 c         1 MOL      0.628497
    115 N11        -0.5480   -0.9240    1.4540 n         1 MOL     -0.713776
    116 O18        -0.7090    0.9380    2.6420 o         1 MOL     -0.538348
    117 H50         3.7660    1.4550    1.4970 hn        1 MOL      0.398125
    118 H51         1.3710    2.2000    2.9110 h1        1 MOL      0.069206
    119 H52         1.9960   -0.0950    1.7200 hc        1 MOL      0.027129
    120 H53         1.3580    0.7000    0.3180 hc        1 MOL      0.027129
    121 H54        -0.0920   -1.6460    0.9150 hn        1 MOL      0.318179
    122 H55        -1.5120   -1.1750    1.6070 hn        1 MOL      0.318179
    123 N12        -0.0570    3.3680    0.9550 n         1 MOL     -0.402831
    124 C39        -0.7580    4.2750    0.0110 c3        1 MOL      0.014056
    125 C40        -2.2270    4.4440    0.4450 c         1 MOL      0.517578
    126 O19        -2.8400    3.6660    1.1970 o         1 MOL     -0.539182
    127 C41        -0.6690    3.7370   -1.4010 c3        1 MOL     -0.168837
    128 C42        -1.7010    2.6180   -1.7140 ca        1 MOL      0.070116
    129 C43        -1.5250    1.3080   -1.2600 ca        1 MOL     -0.113153
    130 C44        -2.8550    2.8690   -2.5150 ca        1 MOL     -0.113153
    131 C45        -2.5240    0.3220   -1.4010 ca        1 MOL     -0.246091
    132 C46        -3.7520    1.8370   -2.8280 ca        1 MOL     -0.246091
    133 C47        -3.6190    0.5350   -2.2530 ca        1 MOL      0.252997
    134 O20        -4.3620   -0.4840   -2.5270 oh        1 MOL     -0.469419
    135 H56        -0.6060    2.9000    1.6600 hn        1 MOL      0.236308
    136 H57        -0.2870    5.2480    0.1240 h1        1 MOL      0.083528
    137 H58         0.3540    3.5590   -1.7200 hc        1 MOL      0.081684
    138 H59        -0.9410    4.5500   -2.0810 hc        1 MOL      0.081684
    139 H60        -0.7280    1.0370   -0.5790 ha        1 MOL      0.107966
    140 H61        -2.9990    3.8330   -2.9720 ha        1 MOL      0.107966
    141 H62        -2.4950   -0.6920   -1.0280 ha        1 MOL      0.113205
    142 H63        -4.6090    1.9700   -3.4790 ha        1 MOL      0.113205
    143 H64        -4.1700   -1.2650   -2.0030 ho        1 MOL      0.444846
    144 N13        -2.8750    5.4660   -0.1380 n         1 MOL     -0.384070
    145 C48        -4.2540    6.0580    0.2480 c3        1 MOL      0.200727
    146 C49        -5.2750    5.9430   -0.9020 c         1 MOL      0.363694
    147 O21        -5.4250    6.8690   -1.7140 o         1 MOL     -0.535908
    148 C50        -4.1400    7.5700    0.7300 c3        1 MOL     -0.073471
    149 C51        -3.2120    7.6840    1.9310 c3        1 MOL     -0.051268
    150 C52        -3.1500    9.0350    2.5870 c         1 MOL      0.719113
    151 O22        -3.3500    9.0690    3.8060 o         1 MOL     -0.670629
    152 O23        -2.9280   10.0540    1.8870 o         1 MOL     -0.670629
    153 H65        -2.3850    6.0120   -0.8230 hn        1 MOL      0.268363
    154 H66        -4.6420    5.4600    1.0720 h1        1 MOL      0.081749
    155 H67        -5.1280    7.9950    0.9060 hc        1 MOL      0.021199
    156 H68        -3.7010    8.1150   -0.1070 hc        1 MOL      0.021199
    157 H69        -2.1880    7.4570    1.6220 hc        1 MOL     -0.016911
    158 H70        -3.5330    6.9290    2.6510 hc        1 MOL     -0.016911
    159 N14        -5.9770    4.7680   -1.0700 n         1 MOL     -0.315123
    160 C53        -5.8640    3.4400   -0.3170 c3        1 MOL     -0.176347
    161 C54        -6.2500    3.4920    1.2080 c         1 MOL      0.544061
    162 O24        -6.7510    4.5010    1.7090 o         1 MOL     -0.522307
    163 C55        -6.6970    2.3840   -1.1290 c3        1 MOL      0.076772
    164 C56        -8.1980    2.3620   -0.8230 c3        1 MOL     -0.167925
    165 C57        -9.0230    1.4580   -1.7650 c         1 MOL      0.546788
    166 O25        -9.5670    1.9540   -2.7990 o         1 MOL     -0.632834
    167 O26        -9.1240    0.2450   -1.5020 o         1 MOL     -0.632834
    168 H71        -6.5910    4.8230   -1.8690 hn        1 MOL      0.275702
    169 H72        -4.8500    3.0750   -0.4680 h1        1 MOL      0.074367
    170 H73        -6.3120    1.4150   -0.8090 hc        1 MOL      0.019046
    171 H74        -6.6160    2.5490   -2.1970 hc        1 MOL      0.019046
    172 H75        -8.5330    3.3990   -0.9650 hc        1 MOL      0.010974
    173 H76        -8.3370    2.1040    0.2280 hc        1 MOL      0.010974
    174 N15        -6.1270    2.2980    1.8440 n         1 MOL     -0.220253
    175 C58        -6.3900    2.1290    3.2720 c3        1 MOL     -0.212333
    176 H77        -6.5750    3.1020    3.7250 h1        1 MOL      0.096501
    177 H78        -7.2650    1.4930    3.4080 h1        1 MOL      0.096501
    178 H79        -5.5260    1.6650    3.7490 h1        1 MOL      0.096501
    179 H80        -5.8570    1.4960    1.2880 hn        1 MOL      0.241785
    180 Ca1        -6.7740   -3.9900   -1.4720 Ca        1 MOL      1.748045
    181 O27        -8.7590   -3.7150   -3.2080 oh        1 MOL     -0.828078
    182 H81        -9.2130   -2.8900   -3.3490 ho        1 MOL      0.385562
    183 H82        -8.5990   -4.0540   -4.0840 ho        1 MOL      0.385562
    184 O28        -8.9900   -2.8180   -0.2660 oh        1 MOL     -0.828078
    185 H83        -9.7160   -2.9010   -0.8920 ho        1 MOL      0.385562
    186 H84        -9.4020   -2.5010    0.5410 ho        1 MOL      0.385562
    187 O29        -7.0800   -1.4210   -2.0640 oh        1 MOL     -0.828078
    188 H85        -6.2760   -0.9030   -1.9400 ho        1 MOL      0.385562
    189 H86        -7.7800   -0.8360   -1.7660 ho        1 MOL      0.385562
    190 O30        -6.7280   -6.4200   -2.8420 oh        1 MOL     -0.828078
    191 H87        -7.3940   -6.5650   -3.5150 ho        1 MOL      0.385562
    192 H88        -6.5820   -7.2860   -2.4590 ho        1 MOL      0.385562
    193 O31        -8.1720   -5.8200   -0.0370 oh        1 MOL     -0.828078
    194 H89        -8.5660   -6.5030   -0.5680 ho        1 MOL      0.385562
    195 H90        -8.3350   -6.0860    0.8610 ho        1 MOL      0.385562
    196 O32        -6.7050   -3.7530    1.1310 oh        1 MOL     -0.828078
    197 H91        -7.4730   -3.2470    1.4040 ho        1 MOL      0.385562
    198 H92        -6.5200   -4.3200    1.8800 ho        1 MOL      0.385562
    199 O33        -5.6390   -3.6990   -3.8290 oh        1 MOL     -0.828078
    200 H93        -5.9480   -3.1110   -4.5220 ho        1 MOL      0.385562
    201 H94        -5.0840   -4.3230   -4.2760 ho        1 MOL      0.385562
@<TRIPOS>BOND
     1    1    2 1   
     2    1    4 1   
     3    1    5 1   
     4    1    6 1   
     5    2    3 2   
     6    2    7 1   
     7    7    8 1   
     8    7   15 1   
     9    8    9 1   
    10    8   11 1   
    11    8   16 1   
    12    9   10 2   
    13    9   19 1   
    14   11   12 1   
    15   11   17 1   
    16   11   18 1   
    17   12   13 1   
    18   12   14 1   
    19   19   20 1   
    20   19   27 1   
    21   20   21 1   
    22   20   23 1   
    23   20   28 1   
    24   21   22 2   
    25   21   38 1   
    26   23   24 1   
    27   23   25 1   
    28   23   29 1   
    29   24   26 1   
    30   24   30 1   
    31   24   31 1   
    32   25   32 1   
    33   25   33 1   
    34   25   34 1   
    35   26   35 1   
    36   26   36 1   
    37   26   37 1   
    38   38   39 1   
    39   38   46 1   
    40   39   40 1   
    41   39   42 1   
    42   39   47 1   
    43   40   41 2   
    44   40   50 1   
    45   42   43 1   
    46   42   48 1   
    47   42   49 1   
    48   43   44 1   
    49   43   45 1   
    50   50   51 1   
    51   50   54 1   
    52   51   52 1   
    53   51   55 1   
    54   51   56 1   
    55   52   53 2   
    56   52   57 1   
    57   57   58 1   
    58   57   65 1   
    59   58   59 1   
    60   58   61 1   
    61   58   66 1   
    62   59   60 2   
    63   59   69 1   
    64   61   62 1   
    65   61   67 1   
    66   61   68 1   
    67   62   63 1   
    68   62   64 1   
    69   69   70 1   
    70   69   73 1   
    71   70   71 1   
    72   70   74 1   
    73   70   75 1   
    74   71   72 2   
    75   71   76 1   
    76   76   77 1   
    77   76   85 1   
    78   77   78 1   
    79   77   80 1   
    80   77   86 1   
    81   78   79 2   
    82   78   93 1   
    83   80   81 1   
    84   80   87 1   
    85   80   88 1   
    86   81   82 1   
    87   81   89 1   
    88   81   90 1   
    89   82   83 1   
    90   82   84 2   
    91   83   91 1   
    92   83   92 1   
    93   93   94 1   
    94   93  100 1   
    95   94   95 1   
    96   94   97 1   
    97   94  101 1   
    98   95   96 2   
    99   95  109 1   
   100   97   98 1   
   101   97   99 1   
   102   97  102 1   
   103   98  103 1   
   104   98  104 1   
   105   98  105 1   
   106   99  106 1   
   107   99  107 1   
   108   99  108 1   
   109  109  110 1   
   110  109  117 1   
   111  110  111 1   
   112  110  113 1   
   113  110  118 1   
   114  111  112 2   
   115  111  123 1   
   116  113  114 1   
   117  113  119 1   
   118  113  120 1   
   119  114  115 1   
   120  114  116 2   
   121  115  121 1   
   122  115  122 1   
   123  123  124 1   
   124  123  135 1   
   125  124  125 1   
   126  124  127 1   
   127  124  136 1   
   128  125  126 2   
   129  125  144 1   
   130  127  128 1   
   131  127  137 1   
   132  127  138 1   
   133  128  129 ar  
   134  128  130 ar  
   135  129  131 ar  
   136  129  139 1   
   137  130  132 ar  
   138  130  140 1   
   139  131  133 ar  
   140  131  141 1   
   141  132  133 ar  
   142  132  142 1   
   143  133  134 1   
   144  134  143 1   
   145  144  145 1   
   146  144  153 1   
   147  145  146 1   
   148  145  148 1   
   149  145  154 1   
   150  146  147 2   
   151  146  159 1   
   152  148  149 1   
   153  148  155 1   
   154  148  156 1   
   155  149  150 1   
   156  149  157 1   
   157  149  158 1   
   158  150  151 1   
   159  150  152 1   
   160  159  160 1   
   161  159  168 1   
   162  160  161 1   
   163  160  163 1   
   164  160  169 1   
   165  161  162 2   
   166  161  174 1   
   167  163  164 1   
   168  163  170 1   
   169  163  171 1   
   170  164  165 1   
   171  164  172 1   
   172  164  173 1   
   173  165  166 1   
   174  165  167 1   
   175  174  175 1   
   176  174  179 1   
   177  175  176 1   
   178  175  177 1   
   179  175  178 1   
   180  181  182 1   
   181  181  183 1   
   182  184  185 1   
   183  184  186 1   
   184  187  188 1   
   185  187  189 1   
   186  190  191 1   
   187  190  192 1   
   188  193  194 1   
   189  193  195 1   
   190  196  197 1   
   191  196  198 1   
   192  199  200 1   
   193  199  201 1   
@<TRIPOS>SUBSTRUCTURE
     1 MOL         1 TEMP              0 ****  ****    0 ROOT
