@<TRIPOS>MOLECULE
MOL
  178   175     1     0     0
SMALL
resp


@<TRIPOS>ATOM
      1 C1          4.9570   -1.5780    3.1050 c3        1 MOL     -0.332646
      2 C2          6.2110   -0.6660    2.8080 c         1 MOL      0.578038
      3 O1          6.1450    0.5600    2.5710 o         1 MOL     -0.574923
      4 H1          4.8740   -1.7410    4.1800 hc        1 MOL      0.091805
      5 H2          4.0550   -1.0850    2.7420 hc        1 MOL      0.091805
      6 H3          5.0760   -2.5360    2.6000 hc        1 MOL      0.091805
      7 N1          7.3880   -1.2320    2.9780 n         1 MOL     -0.378130
      8 C3          8.6710   -0.6580    2.6330 c3        1 MOL      0.043166
      9 C4          8.8390   -0.7250    1.0720 c         1 MOL      0.631535
     10 O2          8.7090   -1.7720    0.4870 o         1 MOL     -0.547728
     11 C5          9.8080   -1.4780    3.2600 c3        1 MOL     -0.246612
     12 C6         11.1920   -0.9880    2.7170 c         1 MOL      0.687584
     13 O3         12.0320   -1.8820    2.3840 o         1 MOL     -0.716850
     14 O4         11.4330    0.2780    2.6550 o         1 MOL     -0.716850
     15 H4          7.3530   -2.1970    3.2560 hn        1 MOL      0.242406
     16 H5          8.7400    0.4130    2.8330 h1        1 MOL      0.038744
     17 H6          9.7060   -2.5230    2.9930 hc        1 MOL      0.045336
     18 H7          9.7780   -1.3500    4.3390 hc        1 MOL      0.045336
     19 N2          9.0190    0.4190    0.4030 n         1 MOL     -0.404401
     20 C7          9.0440    0.5030   -1.0170 c3        1 MOL      0.040162
     21 C8          7.7330    0.0940   -1.6970 c         1 MOL      0.446670
     22 O5          7.7630   -0.2450   -2.8800 o         1 MOL     -0.511047
     23 C9          9.4110    1.9410   -1.5060 c3        1 MOL     -0.144843
     24 H8          9.0530    1.2480    0.9780 hn        1 MOL      0.255795
     25 H9          9.8440   -0.1350   -1.3910 h1        1 MOL      0.109717
     26 H10         8.6310    2.6890   -1.3820 hc        1 MOL      0.041798
     27 H11        10.3150    2.4360   -1.1300 hc        1 MOL      0.041798
     28 H12         9.5310    1.8630   -2.5870 hc        1 MOL      0.041798
     29 N3          6.6480   -0.0260   -0.8940 n         1 MOL     -0.348953
     30 C10         5.3550   -0.5540   -1.2410 c3        1 MOL      0.238792
     31 C11         4.8990    0.0550   -2.6100 c         1 MOL      0.576721
     32 O6          4.5930   -0.6500   -3.5850 o         1 MOL     -0.521598
     33 C12         5.3880   -2.1080   -1.3690 c3        1 MOL      0.012449
     34 C13         4.0650   -2.9190   -1.4040 c         1 MOL      0.717403
     35 O7          4.1030   -4.1890   -1.6190 o         1 MOL     -0.797592
     36 O8          2.9660   -2.3960   -1.1070 o         1 MOL     -0.797592
     37 H13         6.6890    0.3640    0.0400 hn        1 MOL      0.161104
     38 H14         4.6030   -0.3140   -0.4890 h1        1 MOL     -0.000687
     39 H15         5.9170   -2.5320   -0.5230 hc        1 MOL     -0.026542
     40 H16         5.9540   -2.2420   -2.3010 hc        1 MOL     -0.026542
     41 N4          4.7650    1.3840   -2.6900 n         1 MOL     -0.440078
     42 C14         4.5310    2.2010   -3.9190 c3        1 MOL     -0.065862
     43 C15         3.0930    2.7150   -4.2090 c         1 MOL      0.560152
     44 O9          2.9150    3.5540   -5.0810 o         1 MOL     -0.596405
     45 H17         4.9440    1.9790   -1.8950 hn        1 MOL      0.247649
     46 H18         4.8450    1.6220   -4.7870 h1        1 MOL      0.072732
     47 H19         5.0950    3.1340   -3.8330 h1        1 MOL      0.072732
     48 N5          2.1290    2.3380   -3.4410 n         1 MOL     -0.175312
     49 C16         0.8750    3.0900   -3.2770 c3        1 MOL     -0.014023
     50 C17         1.0650    4.2260   -2.3150 c         1 MOL      0.481329
     51 O10         1.8920    4.2140   -1.3480 o         1 MOL     -0.519783
     52 C18        -0.2860    2.1630   -2.9970 c3        1 MOL     -0.274212
     53 C19        -0.4320    1.0870   -4.0450 c         1 MOL      0.565842
     54 N6         -0.4130   -0.1660   -3.6950 n         1 MOL     -0.687943
     55 O11        -0.5470    1.2350   -5.2120 o         1 MOL     -0.584343
     56 H20         2.2970    1.6300   -2.7410 hn        1 MOL      0.173305
     57 H21         0.6680    3.6660   -4.1840 h1        1 MOL      0.056259
     58 H22        -1.2330    2.6870   -2.8940 hc        1 MOL      0.141433
     59 H23        -0.0280    1.7570   -2.0240 hc        1 MOL      0.141433
     60 H24        -0.3800   -0.4590   -2.7280 hn        1 MOL      0.348348
     61 H25        -0.4780   -0.8920   -4.4020 hn        1 MOL      0.348348
     62 N7          0.1070    5.1950   -2.3770 n         1 MOL     -0.360059
     63 C20         0.0400    6.4670   -1.5860 c3        1 MOL     -0.073376
     64 C21        -1.2980    6.6010   -0.7950 c         1 MOL      0.384253
     65 O12        -2.3940    6.2060   -1.3300 o         1 MOL     -0.469781
     66 H26        -0.6560    5.0150   -2.9980 hn        1 MOL      0.271526
     67 H27         0.1850    7.2980   -2.2820 h1        1 MOL      0.082701
     68 H28         0.8880    6.4700   -0.8980 h1        1 MOL      0.082701
     69 N8         -1.1710    6.9920    0.4710 n         1 MOL     -0.289286
     70 C22        -2.2890    7.0120    1.4700 c3        1 MOL     -0.420882
     71 C23        -2.7600    5.6990    2.0860 c         1 MOL      0.474131
     72 O13        -3.8470    5.5580    2.6260 o         1 MOL     -0.558073
     73 C24        -2.0240    8.0360    2.5950 c3        1 MOL      0.469117
     74 C25        -1.0290    7.5680    3.6180 c3        1 MOL     -0.114582
     75 O14        -1.5800    9.2540    2.1200 oh        1 MOL     -0.597557
     76 H29        -0.2400    7.3320    0.7040 hn        1 MOL      0.281200
     77 H30        -3.1120    7.4060    0.8670 h1        1 MOL      0.206820
     78 H31        -2.9630    8.3090    3.0740 h1        1 MOL      0.031545
     79 H32        -0.7840    8.9840    1.6500 ho        1 MOL      0.327296
     80 H33        -0.3460    6.8830    3.1080 hc        1 MOL      0.019304
     81 H34        -0.5730    8.4090    4.1400 hc        1 MOL      0.019304
     82 H35        -1.6450    7.2150    4.4480 hc        1 MOL      0.019304
     83 N9         -1.9120    4.6850    1.9610 n         1 MOL     -0.123701
     84 C26        -2.2960    3.3140    2.2880 c3        1 MOL     -0.012051
     85 C27        -1.8800    2.4500    1.1390 c         1 MOL      0.537773
     86 O15        -0.9850    2.8090    0.3930 o         1 MOL     -0.503732
     87 C28        -1.7740    2.8880    3.6440 c3        1 MOL     -0.041189
     88 C29        -0.1890    2.4910    3.7740 c3        1 MOL      0.057432
     89 C30        -2.3020    3.7340    4.7230 c3        1 MOL     -0.360838
     90 C31         0.7460    3.6990    3.5810 c3        1 MOL     -0.109298
     91 H36        -1.0050    4.9910    1.6300 hn        1 MOL      0.226118
     92 H37        -3.3750    3.3690    2.3950 h1        1 MOL      0.123149
     93 H38        -2.2960    1.9570    3.8660 hc        1 MOL      0.012919
     94 H39         0.1880    1.6480    3.1890 hc        1 MOL      0.033945
     95 H40        -0.0360    2.0710    4.7790 hc        1 MOL      0.033945
     96 H41        -3.3740    3.8270    4.5810 hc        1 MOL      0.101238
     97 H42        -2.2140    3.3530    5.7470 hc        1 MOL      0.101238
     98 H43        -1.7870    4.6900    4.6030 hc        1 MOL      0.101238
     99 H44         1.7650    3.3920    3.8330 hc        1 MOL      0.022537
    100 H45         0.7620    3.9500    2.5210 hc        1 MOL      0.022537
    101 H46         0.5100    4.5290    4.2540 hc        1 MOL      0.022537
    102 N10        -2.5140    1.3010    0.9680 n         1 MOL     -0.889955
    103 C32        -2.0790    0.2150    0.0610 c3        1 MOL      1.015462
    104 C33        -3.2390   -0.4230   -0.6890 c         1 MOL      0.165797
    105 O16        -3.2870   -1.6600   -0.8550 o         1 MOL     -0.470617
    106 C34        -1.3440   -0.8310    0.8550 c3        1 MOL     -0.248135
    107 C35        -0.4990   -1.6920   -0.0280 c         1 MOL      0.792634
    108 O17        -0.1880   -1.3300   -1.1780 o         1 MOL     -0.728926
    109 O18         0.1480   -2.7040    0.4230 o         1 MOL     -0.728926
    110 H47        -3.3210    1.1050    1.5530 hn        1 MOL      0.340311
    111 H48        -1.3920    0.7110   -0.6260 h1        1 MOL     -0.193319
    112 H49        -2.0160   -1.4740    1.4310 hc        1 MOL      0.027030
    113 H50        -0.5940   -0.4050    1.5130 hc        1 MOL      0.027030
    114 N11        -4.2750    0.3710   -1.0450 n         1 MOL     -0.473111
    115 C36        -5.6050   -0.0830   -1.4040 c3        1 MOL      0.430205
    116 C37        -6.2550   -0.9510   -0.2230 c         1 MOL      0.212253
    117 O19        -6.1700   -0.5520    0.9440 o         1 MOL     -0.523703
    118 C38        -6.4490    1.1820   -1.5970 c3        1 MOL     -0.475343
    119 C39        -7.9450    0.9690   -1.6350 ca        1 MOL      0.289918
    120 C40        -8.4690    0.5700   -2.8910 ca        1 MOL     -0.307399
    121 C41        -8.7900    0.9890   -0.5310 ca        1 MOL     -0.307399
    122 C42        -9.8320    0.0730   -2.9580 ca        1 MOL     -0.023240
    123 C43       -10.1630    0.7030   -0.6160 ca        1 MOL     -0.023240
    124 C44       -10.6560    0.2420   -1.8800 ca        1 MOL     -0.182376
    125 H51        -4.0850    1.3480   -1.1560 hn        1 MOL      0.290181
    126 H52        -5.6390   -0.5500   -2.3890 h1        1 MOL     -0.020822
    127 H53        -6.1630    1.8100   -2.4380 hc        1 MOL      0.139593
    128 H54        -6.3260    1.7310   -0.6540 hc        1 MOL      0.139593
    129 H55        -7.7820    0.5710   -3.7300 ha        1 MOL      0.155383
    130 H56        -8.3650    1.2180    0.4320 ha        1 MOL      0.155383
    131 H57       -10.2670   -0.3490   -3.8490 ha        1 MOL      0.100391
    132 H58       -10.8370    0.6960    0.2200 ha        1 MOL      0.100391
    133 H59       -11.6720   -0.0440   -2.0710 ha        1 MOL      0.104684
    134 N12        -6.8980   -2.0720   -0.5340 n         1 MOL      0.222824
    135 C45        -7.6780   -2.7920    0.4750 c3        1 MOL      0.045185
    136 C46        -6.8350   -3.5880    1.4470 c         1 MOL      0.300029
    137 O20        -7.2570   -4.0660    2.4690 o         1 MOL     -0.546793
    138 C47        -8.6340   -3.6420   -0.2920 c3        1 MOL     -0.129154
    139 C48        -7.9380   -3.8850   -1.6810 c3        1 MOL     -0.144331
    140 C49        -6.9670   -2.7100   -1.8140 c3        1 MOL     -0.136921
    141 H60        -8.2700   -2.0640    1.0450 h1        1 MOL      0.055855
    142 H61        -8.7960   -4.6110    0.1970 hc        1 MOL      0.061394
    143 H62        -9.5410   -3.0540   -0.4200 hc        1 MOL      0.061394
    144 H63        -7.3400   -4.8020   -1.6170 hc        1 MOL      0.070392
    145 H64        -8.6240   -3.8830   -2.5290 hc        1 MOL      0.070392
    146 H65        -5.9530   -2.9670   -2.0870 h1        1 MOL      0.061062
    147 H66        -7.4080   -1.9420   -2.4580 h1        1 MOL      0.061062
    148 N13        -5.5950   -3.7880    1.1150 n         1 MOL     -0.040536
    149 C50        -4.6460   -4.5930    1.8460 c3        1 MOL     -0.112756
    150 C51        -4.4220   -4.0400    3.2630 c         1 MOL      0.472714
    151 O21        -3.9010   -4.7590    4.0900 o         1 MOL     -0.530265
    152 C52        -3.2980   -4.5780    1.0930 c3        1 MOL     -0.006104
    153 C53        -2.5250   -5.8990    1.2350 c3        1 MOL     -0.094277
    154 C54        -1.2270   -5.7320    0.4150 c         1 MOL      0.754413
    155 O22        -0.1370   -6.0950    0.9450 o         1 MOL     -0.808546
    156 O23        -1.2250   -5.2780   -0.7410 o         1 MOL     -0.808546
    157 H67        -5.2920   -3.3450    0.2640 hn        1 MOL      0.107846
    158 H68        -4.9910   -5.6290    1.9360 h1        1 MOL      0.103733
    159 H69        -2.6600   -3.7680    1.4410 hc        1 MOL      0.036779
    160 H70        -3.6610   -4.5300    0.0630 hc        1 MOL      0.036779
    161 H71        -3.0960   -6.7870    0.9700 hc        1 MOL      0.022758
    162 H72        -2.2680   -6.0830    2.2820 hc        1 MOL      0.022758
    163 N14        -4.6650   -2.7570    3.5760 n         1 MOL     -0.244247
    164 C55        -4.2160   -2.0850    4.8530 c3        1 MOL     -0.108910
    165 H73        -3.7410   -2.8210    5.5030 h1        1 MOL      0.070318
    166 H74        -3.5020   -1.2950    4.6180 h1        1 MOL      0.070318
    167 H75        -5.0790   -1.6550    5.3610 h1        1 MOL      0.070318
    168 H76        -5.0270   -2.1300    2.8800 hn        1 MOL      0.209562
    169 Ca1         1.4970   -4.5860   -0.8200 Ca        1 MOL      1.772744
    170 O24         3.2370   -4.7380    1.4400 oh        1 MOL     -0.807722
    171 H77         3.2730   -4.4080    2.3470 ho        1 MOL      0.403827
    172 H78         3.9650   -5.3680    1.3940 ho        1 MOL      0.403827
    173 O25         2.2530   -7.1810   -0.8290 oh        1 MOL     -0.807722
    174 H79         2.2800   -7.9980   -1.3370 ho        1 MOL      0.403827
    175 H80         2.7850   -7.3620   -0.0520 ho        1 MOL      0.403827
    176 O26         1.7790   -5.1160   -3.5180 oh        1 MOL     -0.807722
    177 H81         2.0700   -5.9160   -3.9630 ho        1 MOL      0.403827
    178 H82         1.8420   -4.4410   -4.1940 ho        1 MOL      0.403827
@<TRIPOS>BOND
     1    1    2 1   
     2    1    4 1   
     3    1    5 1   
     4    1    6 1   
     5    2    3 2   
     6    2    7 1   
     7    7    8 1   
     8    7   15 1   
     9    8    9 1   
    10    8   11 1   
    11    8   16 1   
    12    9   10 2   
    13    9   19 1   
    14   11   12 1   
    15   11   17 1   
    16   11   18 1   
    17   12   13 1   
    18   12   14 1   
    19   19   20 1   
    20   19   24 1   
    21   20   21 1   
    22   20   23 1   
    23   20   25 1   
    24   21   22 2   
    25   21   29 1   
    26   23   26 1   
    27   23   27 1   
    28   23   28 1   
    29   29   30 1   
    30   29   37 1   
    31   30   31 1   
    32   30   33 1   
    33   30   38 1   
    34   31   32 2   
    35   31   41 1   
    36   33   34 1   
    37   33   39 1   
    38   33   40 1   
    39   34   35 1   
    40   34   36 1   
    41   41   42 1   
    42   41   45 1   
    43   42   43 1   
    44   42   46 1   
    45   42   47 1   
    46   43   44 2   
    47   43   48 1   
    48   48   49 1   
    49   48   56 1   
    50   49   50 1   
    51   49   52 1   
    52   49   57 1   
    53   50   51 2   
    54   50   62 1   
    55   52   53 1   
    56   52   58 1   
    57   52   59 1   
    58   53   54 1   
    59   53   55 2   
    60   54   60 1   
    61   54   61 1   
    62   62   63 1   
    63   62   66 1   
    64   63   64 1   
    65   63   67 1   
    66   63   68 1   
    67   64   65 2   
    68   64   69 1   
    69   69   70 1   
    70   69   76 1   
    71   70   71 1   
    72   70   73 1   
    73   70   77 1   
    74   71   72 2   
    75   71   83 1   
    76   73   74 1   
    77   73   75 1   
    78   73   78 1   
    79   74   80 1   
    80   74   81 1   
    81   74   82 1   
    82   75   79 1   
    83   83   84 1   
    84   83   91 1   
    85   84   85 1   
    86   84   87 1   
    87   84   92 1   
    88   85   86 2   
    89   85  102 1   
    90   87   88 1   
    91   87   89 1   
    92   87   93 1   
    93   88   90 1   
    94   88   94 1   
    95   88   95 1   
    96   89   96 1   
    97   89   97 1   
    98   89   98 1   
    99   90   99 1   
   100   90  100 1   
   101   90  101 1   
   102  102  103 1   
   103  102  110 1   
   104  103  104 1   
   105  103  106 1   
   106  103  111 1   
   107  104  105 2   
   108  104  114 1   
   109  106  107 1   
   110  106  112 1   
   111  106  113 1   
   112  107  108 1   
   113  107  109 1   
   114  114  115 1   
   115  114  125 1   
   116  115  116 1   
   117  115  118 1   
   118  115  126 1   
   119  116  117 2   
   120  116  134 1   
   121  118  119 1   
   122  118  127 1   
   123  118  128 1   
   124  119  120 ar  
   125  119  121 ar  
   126  120  122 ar  
   127  120  129 1   
   128  121  123 ar  
   129  121  130 1   
   130  122  124 ar  
   131  122  131 1   
   132  123  124 ar  
   133  123  132 1   
   134  124  133 1   
   135  134  135 1   
   136  134  140 1   
   137  135  136 1   
   138  135  138 1   
   139  135  141 1   
   140  136  137 2   
   141  136  148 1   
   142  138  139 1   
   143  138  142 1   
   144  138  143 1   
   145  139  140 1   
   146  139  144 1   
   147  139  145 1   
   148  140  146 1   
   149  140  147 1   
   150  148  149 1   
   151  148  157 1   
   152  149  150 1   
   153  149  152 1   
   154  149  158 1   
   155  150  151 2   
   156  150  163 1   
   157  152  153 1   
   158  152  159 1   
   159  152  160 1   
   160  153  154 1   
   161  153  161 1   
   162  153  162 1   
   163  154  155 1   
   164  154  156 1   
   165  163  164 1   
   166  163  168 1   
   167  164  165 1   
   168  164  166 1   
   169  164  167 1   
   170  170  171 1   
   171  170  172 1   
   172  173  174 1   
   173  173  175 1   
   174  176  177 1   
   175  176  178 1   
@<TRIPOS>SUBSTRUCTURE
     1 MOL         1 TEMP              0 ****  ****    0 ROOT
