@<TRIPOS>MOLECULE
MOL
  195   189     1     0     0
SMALL
resp


@<TRIPOS>ATOM
      1 C1         -1.7670    7.8780    2.5560 c3        1 MOL     -0.353539
      2 C2         -1.7930    6.3900    2.3180 c         1 MOL      0.668074
      3 O1         -1.6380    5.6670    3.2840 o         1 MOL     -0.551101
      4 H1         -1.9450    8.0800    3.6120 hc        1 MOL      0.087777
      5 H2         -0.7930    8.2760    2.2700 hc        1 MOL      0.087777
      6 H3         -2.5450    8.3550    1.9600 hc        1 MOL      0.087777
      7 N1         -1.8590    5.8570    1.0330 n         1 MOL     -0.419283
      8 C3         -2.0150    4.4630    0.6770 c3        1 MOL     -0.020800
      9 C4         -0.6660    3.8450    0.1390 c         1 MOL      0.514800
     10 O2         -0.7140    3.1260   -0.8810 o         1 MOL     -0.529662
     11 C5         -3.2280    4.2200   -0.2380 c3        1 MOL     -0.218157
     12 C6         -3.4070    5.2240   -1.3520 c         1 MOL      0.706782
     13 O3         -2.5370    6.0760   -1.6360 o         1 MOL     -0.709189
     14 O4         -4.5460    5.1480   -1.8920 o         1 MOL     -0.709189
     15 H4         -1.5050    6.5360    0.3830 hn        1 MOL      0.252704
     16 H5         -2.3120    3.9540    1.5890 h1        1 MOL      0.066652
     17 H6         -4.1090    4.3670    0.3930 hc        1 MOL      0.076674
     18 H7         -3.2080    3.2450   -0.7280 hc        1 MOL      0.076674
     19 N2          0.4530    4.3170    0.6700 n         1 MOL     -0.445566
     20 C7          1.7410    4.0790    0.1510 c3        1 MOL      0.348552
     21 C8          2.6450    3.4890    1.2870 c         1 MOL      0.462658
     22 O5          2.8880    4.2030    2.2710 o         1 MOL     -0.575929
     23 C9          2.4000    5.3360   -0.6010 c3        1 MOL     -0.229914
     24 C10         1.4570    5.6600   -1.8020 c3        1 MOL      0.086500
     25 C11         2.1460    6.4920   -2.9270 c3        1 MOL     -0.009859
     26 C12         1.3510    6.5690   -4.1590 c3        1 MOL     -0.043075
     27 N3          2.1890    7.1260   -5.2430 n4        1 MOL     -0.186871
     28 H8          0.2800    5.0990    1.2840 hn        1 MOL      0.234565
     29 H9          1.6250    3.2310   -0.5230 h1        1 MOL      0.093952
     30 H10         3.3830    5.0620   -0.9820 hc        1 MOL      0.046089
     31 H11         2.4320    6.2020    0.0470 hc        1 MOL      0.046089
     32 H12         0.6300    6.3120   -1.5350 hc        1 MOL      0.026374
     33 H13         1.0930    4.7100   -2.2110 hc        1 MOL      0.026374
     34 H14         3.1530    6.1190   -3.1330 hc        1 MOL      0.014956
     35 H15         2.2500    7.5180   -2.5540 hc        1 MOL      0.014956
     36 H16         0.6110    7.3600   -3.9920 hx        1 MOL      0.107781
     37 H17         0.8970    5.6200   -4.4550 hx        1 MOL      0.107781
     38 H18         2.6670    6.3410   -5.6710 hn        1 MOL      0.276975
     39 H19         1.7020    7.4830   -6.0500 hn        1 MOL      0.276975
     40 H20         2.9000    7.7360   -4.8510 hn        1 MOL      0.276975
     41 N4          3.1810    2.2850    1.2400 n         1 MOL     -0.466269
     42 C13         3.0240    1.2570    0.1990 c3        1 MOL      0.194303
     43 C14         3.3770    1.7590   -1.2040 c         1 MOL      0.157595
     44 O6          2.5170    2.0570   -2.0680 o         1 MOL     -0.537774
     45 C15         1.6250    0.5160    0.3120 c3        1 MOL     -0.088497
     46 C16         1.1150    0.3040    1.7000 c         1 MOL      0.579918
     47 O7          1.9190    0.4380    2.6690 o         1 MOL     -0.665331
     48 O8         -0.0740   -0.0700    1.7570 o         1 MOL     -0.665331
     49 H21         3.7360    1.9860    2.0360 hn        1 MOL      0.313036
     50 H22         3.7230    0.4810    0.4790 h1        1 MOL      0.060251
     51 H23         1.7540   -0.4730   -0.1190 hc        1 MOL      0.046616
     52 H24         0.8030    1.0890   -0.1140 hc        1 MOL      0.046616
     53 N5          4.6140    1.8470   -1.6300 n         1 MOL     -0.109952
     54 C17         5.8540    1.5430   -0.9150 c3        1 MOL     -0.185384
     55 C18         7.1030    1.1830   -1.7570 c         1 MOL      0.504327
     56 O9          6.9200    0.6160   -2.8550 o         1 MOL     -0.565016
     57 H25         4.5830    2.2440   -2.5620 hn        1 MOL      0.251062
     58 H26         5.6970    0.7040   -0.2390 h1        1 MOL      0.061760
     59 H27         6.0460    2.3850   -0.2510 h1        1 MOL      0.061760
     60 N6          8.3580    1.3260   -1.3380 n         1 MOL     -0.260707
     61 C19         8.7490    1.6290    0.0350 c3        1 MOL     -0.102836
     62 C20         8.6770    0.4330    0.9950 c         1 MOL      0.518107
     63 O10         8.6870    0.6030    2.2260 o         1 MOL     -0.548667
     64 C21        10.1200    2.3880    0.0570 c3        1 MOL     -0.173100
     65 C22        11.2240    1.8020   -0.8480 c         1 MOL      0.687145
     66 O11        11.0250    0.8210   -1.6330 o         1 MOL     -0.662858
     67 O12        12.3790    2.2690   -0.6980 o         1 MOL     -0.662858
     68 H28         9.0960    1.3330   -2.0250 hn        1 MOL      0.235031
     69 H29         8.0350    2.3050    0.5210 h1        1 MOL      0.068988
     70 H30        10.4910    2.5540    1.0720 hc        1 MOL      0.055724
     71 H31         9.8820    3.3750   -0.3410 hc        1 MOL      0.055724
     72 N7          8.4780   -0.7430    0.3890 n         1 MOL     -0.205946
     73 C23         8.1290   -1.9580    1.1460 c3        1 MOL     -0.081201
     74 C24         7.1520   -2.7370    0.2470 c         1 MOL      0.569381
     75 O13         7.4340   -3.0750   -0.9000 o         1 MOL     -0.486502
     76 H32         8.4970   -0.8190   -0.6150 hn        1 MOL      0.214247
     77 H33         7.6210   -1.6050    2.0370 h1        1 MOL      0.058058
     78 H34         9.0000   -2.5390    1.4290 h1        1 MOL      0.058058
     79 N8          6.0230   -3.1360    0.8740 n         1 MOL     -0.542687
     80 C25         5.0000   -3.9760    0.1840 c3        1 MOL     -0.040962
     81 C26         3.6050   -3.3900   -0.1050 c         1 MOL      0.552249
     82 O14         3.0640   -2.6230    0.7020 o         1 MOL     -0.550973
     83 C27         4.9870   -5.4100    0.7070 c3        1 MOL      0.443949
     84 C28         5.0070   -5.7720    2.1580 c3        1 MOL     -0.288188
     85 O15         6.1050   -6.1950    0.1870 oh        1 MOL     -0.650609
     86 H35         5.7960   -2.7690    1.7850 hn        1 MOL      0.341770
     87 H36         5.3860   -4.1850   -0.8160 h1        1 MOL      0.040481
     88 H37         4.0450   -5.7840    0.2870 h1        1 MOL      0.006378
     89 H38         6.9450   -5.7280    0.1620 ho        1 MOL      0.420350
     90 H39         4.3790   -5.1340    2.7830 hc        1 MOL      0.063610
     91 H40         4.5340   -6.7420    2.2810 hc        1 MOL      0.063610
     92 H41         6.0290   -5.7570    2.5240 hc        1 MOL      0.063610
     93 N9          3.0240   -3.7610   -1.2600 n         1 MOL     -0.434039
     94 C29         1.6800   -3.3670   -1.6180 c3        1 MOL      0.061155
     95 C30         0.6490   -4.5830   -1.5250 c         1 MOL      0.425695
     96 O16         1.0630   -5.7260   -1.7000 o         1 MOL     -0.491384
     97 C31         1.6410   -2.7420   -2.9710 c3        1 MOL      0.249470
     98 C32         2.6830   -1.6060   -3.3180 c3        1 MOL     -0.063555
     99 C33         0.3490   -2.1400   -3.4740 c3        1 MOL     -0.415534
    100 C34         4.1860   -2.0760   -3.3620 c3        1 MOL     -0.384261
    101 H42         3.4570   -4.5150   -1.7710 hn        1 MOL      0.284967
    102 H43         1.2620   -2.7050   -0.8490 h1        1 MOL      0.028990
    103 H44         1.9020   -3.5290   -3.6810 hc        1 MOL     -0.022778
    104 H45         2.6000   -0.7170   -2.6920 hc        1 MOL      0.072939
    105 H46         2.5260   -1.0810   -4.2660 hc        1 MOL      0.072939
    106 H47         0.4360   -1.8160   -4.5100 hc        1 MOL      0.087540
    107 H48        -0.3870   -2.9480   -3.4670 hc        1 MOL      0.087540
    108 H49         0.1190   -1.3240   -2.7960 hc        1 MOL      0.087540
    109 H50         4.2040   -2.9990   -3.9490 hc        1 MOL      0.111821
    110 H51         4.8070   -1.2990   -3.8080 hc        1 MOL      0.111821
    111 H52         4.5130   -2.1610   -2.3320 hc        1 MOL      0.111821
    112 N10        -0.6670   -4.2920   -1.2540 n         1 MOL     -0.193888
    113 C35        -1.7860   -5.2310   -1.3120 c3        1 MOL     -0.330886
    114 C36        -3.1540   -4.6780   -1.6920 c         1 MOL      0.599908
    115 O17        -4.0900   -5.4400   -2.0270 o         1 MOL     -0.538054
    116 C37        -1.8820   -6.0360    0.0570 c3        1 MOL      0.446333
    117 C38        -2.2130   -5.0990    1.2100 c3        1 MOL     -0.243096
    118 O18        -0.7760   -6.7640    0.3550 oh        1 MOL     -0.586806
    119 H53        -0.9110   -3.3200   -1.0820 hn        1 MOL      0.212301
    120 H54        -1.5550   -5.9090   -2.1300 h1        1 MOL      0.138557
    121 H55        -2.7570   -6.6610   -0.1570 h1        1 MOL     -0.019843
    122 H56        -0.8050   -7.5950   -0.1150 ho        1 MOL      0.387892
    123 H57        -2.8410   -4.2410    0.9480 hc        1 MOL      0.046734
    124 H58        -2.7060   -5.7710    1.9100 hc        1 MOL      0.046734
    125 H59        -1.2810   -4.7280    1.6410 hc        1 MOL      0.046734
    126 N11        -3.2990   -3.3590   -1.7830 n         1 MOL     -0.394912
    127 C39        -4.5920   -2.6590   -2.0560 c3        1 MOL     -0.013646
    128 C40        -5.6150   -2.8660   -0.9680 c         1 MOL      0.559696
    129 O19        -5.5830   -3.8440   -0.1810 o         1 MOL     -0.464924
    130 C41        -5.1320   -3.0450   -3.4800 c3        1 MOL      0.233551
    131 C42        -4.0820   -2.8140   -4.5660 c3        1 MOL     -0.394260
    132 O20        -6.0550   -2.1090   -3.8900 oh        1 MOL     -0.611860
    133 H60        -2.4970   -2.7450   -1.6680 hn        1 MOL      0.270852
    134 H61        -4.4750   -1.5810   -2.1990 h1        1 MOL      0.122046
    135 H62        -5.5660   -4.0400   -3.4450 h1        1 MOL      0.074253
    136 H63        -6.4480   -2.3720   -4.7240 ho        1 MOL      0.394578
    137 H64        -3.6810   -1.8070   -4.6090 hc        1 MOL      0.105740
    138 H65        -3.3110   -3.5890   -4.5130 hc        1 MOL      0.105740
    139 H66        -4.5720   -3.0590   -5.5160 hc        1 MOL      0.105740
    140 N12        -6.6690   -2.0610   -1.0510 n         1 MOL     -0.425820
    141 C43        -7.7820   -2.0280   -0.1150 c3        1 MOL     -0.086468
    142 C44        -7.4160   -1.0910    1.1070 c         1 MOL      0.631491
    143 O21        -7.9070   -1.3390    2.1600 o         1 MOL     -0.550081
    144 C45        -9.1460   -1.6670   -0.7650 c3        1 MOL     -0.057846
    145 C46        -9.2740   -0.3150   -1.4800 c3        1 MOL     -0.191297
    146 C47       -10.7510   -0.1790   -2.0060 c3        1 MOL     -0.275634
    147 C48       -10.8340    1.1880   -2.6960 c3        1 MOL      0.088830
    148 N13       -10.5340    1.1270   -4.1110 n4        1 MOL     -0.260139
    149 H67        -6.6300   -1.3740   -1.7870 hn        1 MOL      0.222435
    150 H68        -8.0240   -2.9440    0.4130 h1        1 MOL      0.112948
    151 H69        -9.8910   -1.6650    0.0350 hc        1 MOL      0.068307
    152 H70        -9.4490   -2.4650   -1.4520 hc        1 MOL      0.068307
    153 H71        -8.6400   -0.2130   -2.3570 hc        1 MOL      0.124018
    154 H72        -9.1390    0.3880   -0.6590 hc        1 MOL      0.124018
    155 H73       -11.3530   -0.1160   -1.1070 hc        1 MOL      0.113843
    156 H74       -11.0350   -1.0290   -2.6300 hc        1 MOL      0.113843
    157 H75       -10.1450    1.9030   -2.2580 hx        1 MOL      0.080707
    158 H76       -11.8310    1.6060   -2.5860 hx        1 MOL      0.080707
    159 H77        -9.5500    0.9870   -4.2610 hn        1 MOL      0.257622
    160 H78       -11.0960    0.3560   -4.4540 hn        1 MOL      0.257622
    161 H79       -10.9120    1.9680   -4.5280 hn        1 MOL      0.257622
    162 N14        -6.5430   -0.1320    0.8730 n         1 MOL     -0.396135
    163 C49        -6.0360    0.7910    1.9100 c3        1 MOL     -0.217244
    164 C50        -6.9230    2.0250    2.0600 c         1 MOL      0.308357
    165 O22        -6.9550    2.8960    1.1760 o         1 MOL     -0.509055
    166 C51        -4.5630    1.2190    1.6790 c3        1 MOL      0.085829
    167 C52        -3.5240    0.0230    1.5140 c3        1 MOL      0.266226
    168 C53        -3.2970   -0.6380    2.8370 c         1 MOL      0.411309
    169 O23        -4.0540   -1.6120    3.1360 o         1 MOL     -0.672100
    170 O24        -2.5490   -0.1540    3.7430 o         1 MOL     -0.672100
    171 H80        -6.1410    0.0250   -0.0300 hn        1 MOL      0.275298
    172 H81        -6.1710    0.3140    2.8830 h1        1 MOL      0.211905
    173 H82        -4.2860    1.8770    2.5040 hc        1 MOL      0.054239
    174 H83        -4.4710    1.7390    0.7260 hc        1 MOL      0.054239
    175 H84        -2.5740    0.4490    1.1880 hc        1 MOL     -0.103794
    176 H85        -3.8770   -0.6570    0.7400 hc        1 MOL     -0.103794
    177 N15        -7.6990    2.1300    3.0920 n         1 MOL     -0.151694
    178 C54        -8.7330    3.1420    3.4620 c3        1 MOL      0.003870
    179 H86        -8.4050    3.6890    4.3450 h1        1 MOL      0.046296
    180 H87        -8.8730    3.8380    2.6350 h1        1 MOL      0.046296
    181 H88        -9.6750    2.6380    3.6760 h1        1 MOL      0.046296
    182 H89        -7.6660    1.3550    3.7440 hn        1 MOL      0.184711
    183 Ca1         0.0180   -1.2600    4.1980 Ca        1 MOL      1.804809
    184 O25         2.4760   -1.2290    5.2370 oh        1 MOL     -0.960823
    185 H90         2.7460   -0.5530    5.8630 ho        1 MOL      0.462927
    186 H91         3.0640   -1.9670    5.4030 ho        1 MOL      0.462927
    187 O26         0.0790    0.9370    5.4700 oh        1 MOL     -0.960823
    188 H92        -0.3210    1.8090    5.5510 ho        1 MOL      0.462927
    189 H93         0.9450    1.0390    5.8800 ho        1 MOL      0.462927
    190 O27         1.3300   -2.8770    2.7270 oh        1 MOL     -0.960823
    191 H94         1.3640   -3.8260    2.6100 ho        1 MOL      0.462927
    192 H95         1.9750   -2.5360    2.1060 ho        1 MOL      0.462927
    193 O28        -1.9540   -3.1570    3.6850 oh        1 MOL     -0.960823
    194 H96        -2.2920   -4.0160    3.9510 ho        1 MOL      0.462927
    195 H97        -2.6950   -2.7230    3.2800 ho        1 MOL      0.462927
@<TRIPOS>BOND
     1    1    2 1   
     2    1    4 1   
     3    1    5 1   
     4    1    6 1   
     5    2    3 2   
     6    2    7 1   
     7    7    8 1   
     8    7   15 1   
     9    8    9 1   
    10    8   11 1   
    11    8   16 1   
    12    9   10 2   
    13    9   19 1   
    14   11   12 1   
    15   11   17 1   
    16   11   18 1   
    17   12   13 1   
    18   12   14 1   
    19   19   20 1   
    20   19   28 1   
    21   20   21 1   
    22   20   23 1   
    23   20   29 1   
    24   21   22 2   
    25   21   41 1   
    26   23   24 1   
    27   23   30 1   
    28   23   31 1   
    29   24   25 1   
    30   24   32 1   
    31   24   33 1   
    32   25   26 1   
    33   25   34 1   
    34   25   35 1   
    35   26   27 1   
    36   26   36 1   
    37   26   37 1   
    38   27   38 1   
    39   27   39 1   
    40   27   40 1   
    41   41   42 1   
    42   41   49 1   
    43   42   43 1   
    44   42   45 1   
    45   42   50 1   
    46   43   44 2   
    47   43   53 1   
    48   45   46 1   
    49   45   51 1   
    50   45   52 1   
    51   46   47 1   
    52   46   48 1   
    53   53   54 1   
    54   53   57 1   
    55   54   55 1   
    56   54   58 1   
    57   54   59 1   
    58   55   56 2   
    59   55   60 1   
    60   60   61 1   
    61   60   68 1   
    62   61   62 1   
    63   61   64 1   
    64   61   69 1   
    65   62   63 2   
    66   62   72 1   
    67   64   65 1   
    68   64   70 1   
    69   64   71 1   
    70   65   66 1   
    71   65   67 1   
    72   72   73 1   
    73   72   76 1   
    74   73   74 1   
    75   73   77 1   
    76   73   78 1   
    77   74   75 2   
    78   74   79 1   
    79   79   80 1   
    80   79   86 1   
    81   80   81 1   
    82   80   83 1   
    83   80   87 1   
    84   81   82 2   
    85   81   93 1   
    86   83   84 1   
    87   83   85 1   
    88   83   88 1   
    89   84   90 1   
    90   84   91 1   
    91   84   92 1   
    92   85   89 1   
    93   93   94 1   
    94   93  101 1   
    95   94   95 1   
    96   94   97 1   
    97   94  102 1   
    98   95   96 2   
    99   95  112 1   
   100   97   98 1   
   101   97   99 1   
   102   97  103 1   
   103   98  100 1   
   104   98  104 1   
   105   98  105 1   
   106   99  106 1   
   107   99  107 1   
   108   99  108 1   
   109  100  109 1   
   110  100  110 1   
   111  100  111 1   
   112  112  113 1   
   113  112  119 1   
   114  113  114 1   
   115  113  116 1   
   116  113  120 1   
   117  114  115 2   
   118  114  126 1   
   119  116  117 1   
   120  116  118 1   
   121  116  121 1   
   122  117  123 1   
   123  117  124 1   
   124  117  125 1   
   125  118  122 1   
   126  126  127 1   
   127  126  133 1   
   128  127  128 1   
   129  127  130 1   
   130  127  134 1   
   131  128  129 2   
   132  128  140 1   
   133  130  131 1   
   134  130  132 1   
   135  130  135 1   
   136  131  137 1   
   137  131  138 1   
   138  131  139 1   
   139  132  136 1   
   140  140  141 1   
   141  140  149 1   
   142  141  142 1   
   143  141  144 1   
   144  141  150 1   
   145  142  143 2   
   146  142  162 1   
   147  144  145 1   
   148  144  151 1   
   149  144  152 1   
   150  145  146 1   
   151  145  153 1   
   152  145  154 1   
   153  146  147 1   
   154  146  155 1   
   155  146  156 1   
   156  147  148 1   
   157  147  157 1   
   158  147  158 1   
   159  148  159 1   
   160  148  160 1   
   161  148  161 1   
   162  162  163 1   
   163  162  171 1   
   164  163  164 1   
   165  163  166 1   
   166  163  172 1   
   167  164  165 2   
   168  164  177 1   
   169  166  167 1   
   170  166  173 1   
   171  166  174 1   
   172  167  168 1   
   173  167  175 1   
   174  167  176 1   
   175  168  169 1   
   176  168  170 1   
   177  177  178 1   
   178  177  182 1   
   179  178  179 1   
   180  178  180 1   
   181  178  181 1   
   182  184  185 1   
   183  184  186 1   
   184  187  188 1   
   185  187  189 1   
   186  190  191 1   
   187  190  192 1   
   188  193  194 1   
   189  193  195 1   
@<TRIPOS>SUBSTRUCTURE
     1 MOL         1 TEMP              0 ****  ****    0 ROOT
