@<TRIPOS>MOLECULE
MOL
  181   177     1     0     0
SMALL
resp


@<TRIPOS>ATOM
      1 C1          4.0330   -2.3480    3.6790 c3        1 MOL     -0.209671
      2 C2          5.3780   -1.6180    3.3210 c         1 MOL      0.509923
      3 O1          5.5860   -0.4470    3.5860 o         1 MOL     -0.543822
      4 H1          4.2480   -3.2290    4.2840 hc        1 MOL      0.056300
      5 H2          3.3890   -1.6700    4.2410 hc        1 MOL      0.056300
      6 H3          3.5280   -2.6520    2.7620 hc        1 MOL      0.056300
      7 N1          6.3350   -2.3600    2.7770 n         1 MOL     -0.236762
      8 C3          7.5840   -1.9310    2.1410 c3        1 MOL     -0.013125
      9 C4          7.4650   -1.9510    0.5920 c         1 MOL      0.661237
     10 O2          7.0310   -2.9660    0.0710 o         1 MOL     -0.609230
     11 C5          8.8160   -2.7050    2.5120 c3        1 MOL     -0.209527
     12 C6          8.9340   -2.7860    4.0650 c         1 MOL      0.633618
     13 O3          9.0900   -3.9020    4.6190 o         1 MOL     -0.692751
     14 O4          8.8380   -1.7090    4.7460 o         1 MOL     -0.692751
     15 H4          6.1000   -3.3140    2.5640 hn        1 MOL      0.199419
     16 H5          7.7830   -0.8940    2.3940 h1        1 MOL      0.047661
     17 H6          9.7020   -2.2910    2.0210 hc        1 MOL      0.033660
     18 H7          8.7750   -3.6920    2.0650 hc        1 MOL      0.033660
     19 N2          7.5510   -0.7450    0.0070 n         1 MOL     -0.601793
     20 C7          7.2990   -0.4580   -1.4290 c3        1 MOL      0.239179
     21 C8          5.8940    0.0730   -1.6690 c         1 MOL      0.624171
     22 O5          5.2180    0.5440   -0.7830 o         1 MOL     -0.594565
     23 C9          8.5340    0.3250   -1.9120 c3        1 MOL     -0.382675
     24 H8          7.6860   -0.0010    0.6870 hn        1 MOL      0.325867
     25 H9          7.2970   -1.4430   -1.8880 h1        1 MOL      0.071448
     26 H10         8.4330    1.3170   -1.4810 hc        1 MOL      0.098910
     27 H11         9.5560    0.0010   -1.7380 hc        1 MOL      0.098910
     28 H12         8.5030    0.4480   -2.9990 hc        1 MOL      0.098910
     29 N3          5.3620   -0.0760   -2.8330 n         1 MOL     -0.530284
     30 C10         4.1670    0.4800   -3.2660 c3        1 MOL      0.362777
     31 C11         4.3120    2.0280   -3.6170 c         1 MOL      0.384404
     32 O6          3.9200    2.4770   -4.7280 o         1 MOL     -0.489242
     33 C12         3.5340   -0.3240   -4.4060 c3        1 MOL     -0.529228
     34 C13         2.8800   -1.5860   -3.8240 c         1 MOL      0.857697
     35 O7          3.4880   -2.6300   -4.0320 o         1 MOL     -0.738579
     36 O8          1.8340   -1.4800   -3.1990 o         1 MOL     -0.738579
     37 H13         5.9260   -0.4570   -3.5760 hn        1 MOL      0.279164
     38 H14         3.5120    0.4860   -2.3860 h1        1 MOL     -0.015965
     39 H15         4.3170   -0.6550   -5.0820 hc        1 MOL      0.119132
     40 H16         2.6990    0.3010   -4.7280 hc        1 MOL      0.119132
     41 N4          4.8430    2.8540   -2.6890 n         1 MOL     -0.395214
     42 C14         5.0210    4.3020   -2.7560 c3        1 MOL     -0.322692
     43 C15         3.6970    5.1150   -2.8460 c         1 MOL      0.577655
     44 O9          3.7470    6.3350   -2.6340 o         1 MOL     -0.568803
     45 H17         5.1030    2.4100   -1.8180 hn        1 MOL      0.297689
     46 H18         5.7200    4.3760   -3.5970 h1        1 MOL      0.161302
     47 H19         5.5710    4.5600   -1.8500 h1        1 MOL      0.161302
     48 N5          2.5290    4.5180   -3.1990 n         1 MOL     -0.321560
     49 C16         1.1810    5.1870   -3.2180 c3        1 MOL     -0.017609
     50 C17         0.8410    5.8450   -1.8640 c         1 MOL      0.481531
     51 O10        -0.0380    6.7420   -1.9510 o         1 MOL     -0.513483
     52 C18         0.1990    4.0670   -3.5960 c3        1 MOL     -0.303801
     53 C19         0.3060    3.5090   -5.0160 c         1 MOL      0.678387
     54 N6         -0.1100    2.2510   -5.1710 n         1 MOL     -0.827342
     55 O11         0.8010    4.1290   -5.9470 o         1 MOL     -0.545342
     56 H20         2.6540    3.5220   -3.3070 hn        1 MOL      0.268613
     57 H21         1.2570    5.9610   -3.9850 h1        1 MOL      0.133566
     58 H22        -0.8320    4.4190   -3.4800 hc        1 MOL      0.103561
     59 H23         0.3650    3.2560   -2.8920 hc        1 MOL      0.103561
     60 H24        -0.5400    1.8670   -4.3360 hn        1 MOL      0.394260
     61 H25         0.1160    1.7710   -6.0310 hn        1 MOL      0.394260
     62 N7          1.3540    5.4400   -0.6630 n         1 MOL     -0.274678
     63 C20         0.9000    5.9120    0.6700 c3        1 MOL     -0.244623
     64 C21        -0.5780    5.6320    1.0000 c         1 MOL      0.633080
     65 O12        -1.2050    4.8510    0.2500 o         1 MOL     -0.463672
     66 H26         2.0680    4.7390   -0.7300 hn        1 MOL      0.254334
     67 H27         0.9070    7.0030    0.5580 h1        1 MOL      0.115912
     68 H28         1.5390    5.5780    1.4840 h1        1 MOL      0.115912
     69 N8         -1.0540    6.1650    2.1940 n         1 MOL     -0.425374
     70 C22        -2.4110    6.0430    2.6290 c3        1 MOL     -0.281655
     71 C23        -2.7540    4.6070    3.0530 c         1 MOL      0.467593
     72 O13        -3.9630    4.2420    2.9410 o         1 MOL     -0.543399
     73 C24        -2.6820    7.0510    3.7500 c3        1 MOL      0.507172
     74 C25        -1.8820    6.7340    5.0210 c3        1 MOL     -0.340664
     75 O14        -2.3900    8.3880    3.5340 oh        1 MOL     -0.641569
     76 H29        -0.3760    6.6250    2.7840 hn        1 MOL      0.227601
     77 H30        -3.0190    6.3450    1.7780 h1        1 MOL      0.165401
     78 H31        -3.7470    6.8990    3.9070 h1        1 MOL      0.026678
     79 H32        -1.4530    8.4820    3.3380 ho        1 MOL      0.391585
     80 H33        -2.2550    7.3650    5.8240 hc        1 MOL      0.076306
     81 H34        -1.9860    5.6900    5.3210 hc        1 MOL      0.076306
     82 H35        -0.8210    6.9530    4.9150 hc        1 MOL      0.076306
     83 N9         -1.7710    3.7970    3.4060 n         1 MOL     -0.226624
     84 C26        -1.8330    2.3870    3.6650 c3        1 MOL     -0.025175
     85 C27        -1.3390    1.5650    2.4910 c         1 MOL      0.557910
     86 O15        -0.2220    1.7750    2.0510 o         1 MOL     -0.509623
     87 C28        -1.1880    2.0460    5.0250 c3        1 MOL      0.013524
     88 C29        -1.8300    2.6600    6.2640 c3        1 MOL     -0.151419
     89 C30        -1.2070    0.5140    5.0980 c3        1 MOL      0.117682
     90 C31        -3.3220    2.7390    6.3320 c3        1 MOL     -0.192306
     91 H36        -0.8300    4.1580    3.3760 hn        1 MOL      0.203791
     92 H37        -2.8830    2.1300    3.7150 h1        1 MOL      0.051015
     93 H38        -0.1370    2.3050    4.9850 hc        1 MOL      0.037344
     94 H39        -1.4430    3.6670    6.3840 hc        1 MOL      0.059822
     95 H40        -1.4460    2.2030    7.1740 hc        1 MOL      0.059822
     96 H41        -0.5290    0.0080    4.4090 hc        1 MOL     -0.024937
     97 H42        -0.9170    0.1380    6.0810 hc        1 MOL     -0.024937
     98 H43        -2.1790    0.1180    4.8210 hc        1 MOL     -0.024937
     99 H44        -3.7760    1.7510    6.3230 hc        1 MOL      0.055214
    100 H45        -3.5810    3.0050    7.3540 hc        1 MOL      0.055214
    101 H46        -3.8130    3.3360    5.5580 hc        1 MOL      0.055214
    102 N10        -2.1960    0.6050    2.0770 n         1 MOL     -0.525661
    103 C32        -1.8180   -0.3240    1.0220 c3        1 MOL      0.255269
    104 C33        -2.9700   -0.7080    0.1340 c         1 MOL      0.523778
    105 O16        -3.0020   -1.8350   -0.3750 o         1 MOL     -0.399250
    106 C34        -1.0220   -1.4920    1.6340 c3        1 MOL     -0.238849
    107 C35        -0.0470   -2.0880    0.6650 c         1 MOL      0.628943
    108 O17         0.4280   -1.3430   -0.2320 o         1 MOL     -0.663153
    109 O18         0.4450   -3.2230    0.8370 o         1 MOL     -0.663153
    110 H47        -3.1230    0.4990    2.4760 hn        1 MOL      0.300988
    111 H48        -1.0910    0.2210    0.4170 h1        1 MOL      0.022339
    112 H49        -1.7200   -2.2460    2.0250 hc        1 MOL      0.061495
    113 H50        -0.4620   -1.1380    2.4960 hc        1 MOL      0.061495
    114 N11        -3.8960    0.1930   -0.1130 n         1 MOL     -0.579142
    115 C36        -5.1720    0.0430   -0.8280 c3        1 MOL      0.303225
    116 C37        -5.8440   -1.3110   -0.3950 c         1 MOL      0.281986
    117 O19        -6.0610   -1.5070    0.8510 o         1 MOL     -0.560287
    118 C38        -6.1350    1.1760   -0.5410 c3        1 MOL     -0.346189
    119 C39        -7.2470    1.0450   -1.6070 ca        1 MOL      0.069521
    120 C40        -8.4010    0.2450   -1.3770 ca        1 MOL     -0.151113
    121 C41        -7.0680    1.6630   -2.8510 ca        1 MOL     -0.151113
    122 C42        -9.2000   -0.1160   -2.4220 ca        1 MOL     -0.107723
    123 C43        -8.0240    1.3800   -3.8810 ca        1 MOL     -0.107723
    124 C44        -8.9260    0.3350   -3.6960 ca        1 MOL     -0.123746
    125 H51        -3.6840    1.1610    0.0680 hn        1 MOL      0.299734
    126 H52        -5.0220   -0.0380   -1.9030 h1        1 MOL      0.012439
    127 H53        -5.5920    2.1130   -0.6690 hc        1 MOL      0.140588
    128 H54        -6.4390    1.1680    0.5110 hc        1 MOL      0.140588
    129 H55        -8.5320   -0.1390   -0.3800 ha        1 MOL      0.123434
    130 H56        -6.3190    2.4410   -2.9540 ha        1 MOL      0.123434
    131 H57       -10.0710   -0.7200   -2.2190 ha        1 MOL      0.106224
    132 H58        -7.9370    1.8220   -4.8650 ha        1 MOL      0.106224
    133 H59        -9.4480   -0.0940   -4.5390 ha        1 MOL      0.107866
    134 N12        -6.2320   -2.2400   -1.2840 n         1 MOL      0.166858
    135 C45        -7.0260   -3.4450   -1.0090 c3        1 MOL     -0.137776
    136 C46        -6.2660   -4.3780   -0.0650 c         1 MOL      0.469403
    137 O20        -6.7890   -5.4140    0.2980 o         1 MOL     -0.555382
    138 C47        -7.2830   -4.0590   -2.3590 c3        1 MOL      0.136794
    139 C48        -6.3950   -3.3970   -3.4100 c3        1 MOL     -0.235452
    140 C49        -5.8510   -2.1620   -2.6910 c3        1 MOL     -0.004479
    141 H60        -7.9630   -3.2600   -0.4790 h1        1 MOL      0.083973
    142 H61        -7.1360   -5.1420   -2.3750 hc        1 MOL     -0.008327
    143 H62        -8.3350   -3.8660   -2.5740 hc        1 MOL     -0.008327
    144 H63        -5.5860   -4.1040   -3.5910 hc        1 MOL      0.084319
    145 H64        -6.9480   -3.1890   -4.3200 hc        1 MOL      0.084319
    146 H65        -4.7670   -2.0680   -2.7700 h1        1 MOL      0.043289
    147 H66        -6.2060   -1.1900   -3.0470 h1        1 MOL      0.043289
    148 N13        -4.9870   -4.1150    0.2910 n         1 MOL     -0.099098
    149 C50        -4.1060   -5.1010    0.9150 c3        1 MOL     -0.277951
    150 C51        -4.1470   -5.0020    2.4180 c         1 MOL      0.517303
    151 O21        -3.8780   -5.9510    3.1470 o         1 MOL     -0.541902
    152 C52        -2.6580   -4.8940    0.4450 c3        1 MOL      0.679630
    153 C53        -2.3700   -5.0620   -1.0670 c3        1 MOL     -0.474565
    154 C54        -0.9350   -4.6600   -1.4430 c         1 MOL      0.838916
    155 O22         0.0560   -5.3240   -1.0590 o         1 MOL     -0.802393
    156 O23        -0.5530   -3.6430   -2.0620 o         1 MOL     -0.802393
    157 H67        -4.6790   -3.1820    0.0800 hn        1 MOL     -0.083380
    158 H68        -4.3180   -6.1260    0.6100 h1        1 MOL      0.118508
    159 H69        -2.1020   -5.6570    0.9970 hc        1 MOL     -0.136465
    160 H70        -2.3080   -3.9210    0.7920 hc        1 MOL     -0.136465
    161 H71        -3.0530   -4.4820   -1.6810 hc        1 MOL      0.077790
    162 H72        -2.4480   -6.1500   -1.1850 hc        1 MOL      0.077790
    163 N14        -4.3730   -3.7830    2.9620 n         1 MOL     -0.255537
    164 C55        -4.4310   -3.6580    4.3710 c3        1 MOL     -0.246920
    165 H73        -4.6980   -4.6190    4.8100 h1        1 MOL      0.091167
    166 H74        -3.4580   -3.3440    4.7490 h1        1 MOL      0.091167
    167 H75        -5.1830   -2.9150    4.6390 h1        1 MOL      0.091167
    168 H76        -4.4740   -2.9200    2.4510 hn        1 MOL      0.304209
    169 Ca1         2.0400   -3.3000   -1.1540 Ca        1 MOL      1.765986
    170 O24         3.1520   -1.1490    0.1570 oh        1 MOL     -0.825338
    171 H77         2.3560   -0.7330    0.4980 ho        1 MOL      0.400700
    172 H78         3.8460   -0.5120    0.3180 ho        1 MOL      0.400700
    173 O25         3.0550   -4.8840    0.7920 oh        1 MOL     -0.825338
    174 H79         3.9750   -5.1590    0.8000 ho        1 MOL      0.400700
    175 H80         2.6760   -5.3020    1.5600 ho        1 MOL      0.400700
    176 O26         2.8410   -5.4120   -2.5620 oh        1 MOL     -0.825338
    177 H81         3.5180   -6.0860   -2.4800 ho        1 MOL      0.400700
    178 H82         2.1000   -5.8720   -2.9590 ho        1 MOL      0.400700
    179 O27         4.8140   -3.5350   -1.1910 oh        1 MOL     -0.825338
    180 H83         5.0660   -4.4590   -1.2320 ho        1 MOL      0.400700
    181 H84         5.4860   -3.1310   -0.6430 ho        1 MOL      0.400700
@<TRIPOS>BOND
     1    1    2 1   
     2    1    4 1   
     3    1    5 1   
     4    1    6 1   
     5    2    3 2   
     6    2    7 1   
     7    7    8 1   
     8    7   15 1   
     9    8    9 1   
    10    8   11 1   
    11    8   16 1   
    12    9   10 2   
    13    9   19 1   
    14   11   12 1   
    15   11   17 1   
    16   11   18 1   
    17   12   13 1   
    18   12   14 1   
    19   19   20 1   
    20   19   24 1   
    21   20   21 1   
    22   20   23 1   
    23   20   25 1   
    24   21   22 2   
    25   21   29 1   
    26   23   26 1   
    27   23   27 1   
    28   23   28 1   
    29   29   30 1   
    30   29   37 1   
    31   30   31 1   
    32   30   33 1   
    33   30   38 1   
    34   31   32 2   
    35   31   41 1   
    36   33   34 1   
    37   33   39 1   
    38   33   40 1   
    39   34   35 1   
    40   34   36 1   
    41   41   42 1   
    42   41   45 1   
    43   42   43 1   
    44   42   46 1   
    45   42   47 1   
    46   43   44 2   
    47   43   48 1   
    48   48   49 1   
    49   48   56 1   
    50   49   50 1   
    51   49   52 1   
    52   49   57 1   
    53   50   51 2   
    54   50   62 1   
    55   52   53 1   
    56   52   58 1   
    57   52   59 1   
    58   53   54 1   
    59   53   55 2   
    60   54   60 1   
    61   54   61 1   
    62   62   63 1   
    63   62   66 1   
    64   63   64 1   
    65   63   67 1   
    66   63   68 1   
    67   64   65 2   
    68   64   69 1   
    69   69   70 1   
    70   69   76 1   
    71   70   71 1   
    72   70   73 1   
    73   70   77 1   
    74   71   72 2   
    75   71   83 1   
    76   73   74 1   
    77   73   75 1   
    78   73   78 1   
    79   74   80 1   
    80   74   81 1   
    81   74   82 1   
    82   75   79 1   
    83   83   84 1   
    84   83   91 1   
    85   84   85 1   
    86   84   87 1   
    87   84   92 1   
    88   85   86 2   
    89   85  102 1   
    90   87   88 1   
    91   87   89 1   
    92   87   93 1   
    93   88   90 1   
    94   88   94 1   
    95   88   95 1   
    96   89   96 1   
    97   89   97 1   
    98   89   98 1   
    99   90   99 1   
   100   90  100 1   
   101   90  101 1   
   102  102  103 1   
   103  102  110 1   
   104  103  104 1   
   105  103  106 1   
   106  103  111 1   
   107  104  105 2   
   108  104  114 1   
   109  106  107 1   
   110  106  112 1   
   111  106  113 1   
   112  107  108 1   
   113  107  109 1   
   114  114  115 1   
   115  114  125 1   
   116  115  116 1   
   117  115  118 1   
   118  115  126 1   
   119  116  117 2   
   120  116  134 1   
   121  118  119 1   
   122  118  127 1   
   123  118  128 1   
   124  119  120 ar  
   125  119  121 ar  
   126  120  122 ar  
   127  120  129 1   
   128  121  123 ar  
   129  121  130 1   
   130  122  124 ar  
   131  122  131 1   
   132  123  124 ar  
   133  123  132 1   
   134  124  133 1   
   135  134  135 1   
   136  134  140 1   
   137  135  136 1   
   138  135  138 1   
   139  135  141 1   
   140  136  137 2   
   141  136  148 1   
   142  138  139 1   
   143  138  142 1   
   144  138  143 1   
   145  139  140 1   
   146  139  144 1   
   147  139  145 1   
   148  140  146 1   
   149  140  147 1   
   150  148  149 1   
   151  148  157 1   
   152  149  150 1   
   153  149  152 1   
   154  149  158 1   
   155  150  151 2   
   156  150  163 1   
   157  152  153 1   
   158  152  159 1   
   159  152  160 1   
   160  153  154 1   
   161  153  161 1   
   162  153  162 1   
   163  154  155 1   
   164  154  156 1   
   165  163  164 1   
   166  163  168 1   
   167  164  165 1   
   168  164  166 1   
   169  164  167 1   
   170  170  171 1   
   171  170  172 1   
   172  173  174 1   
   173  173  175 1   
   174  176  177 1   
   175  176  178 1   
   176  179  180 1   
   177  179  181 1   
@<TRIPOS>SUBSTRUCTURE
     1 MOL         1 TEMP              0 ****  ****    0 ROOT
