@<TRIPOS>MOLECULE
MOL
  192   187     1     0     0
SMALL
resp


@<TRIPOS>ATOM
      1 C1         -5.7480   -3.3810    5.2550 c3        1 MOL     -0.307070
      2 C2         -5.2090   -2.7650    3.9240 c         1 MOL      0.735467
      3 O1         -4.7540   -3.4500    3.0010 o         1 MOL     -0.617635
      4 H1         -6.1270   -2.5850    5.8960 hc        1 MOL      0.080254
      5 H2         -6.5520   -4.0820    5.0330 hc        1 MOL      0.080254
      6 H3         -4.9400   -3.9040    5.7670 hc        1 MOL      0.080254
      7 N1         -5.1820   -1.4410    3.7860 n         1 MOL     -0.469753
      8 C3         -4.9130   -0.7010    2.5460 c3        1 MOL      0.494545
      9 C4         -3.4560   -0.6640    2.0770 c         1 MOL     -0.262442
     10 O2         -3.1750   -0.0670    1.1150 o         1 MOL     -0.104097
     11 C5         -5.4120    0.7980    2.7400 c3        1 MOL     -0.081007
     12 C6         -6.8170    0.9880    3.2150 c         1 MOL      0.702236
     13 O3         -7.0990    0.5550    4.3670 o         1 MOL     -0.697038
     14 O4         -7.5800    1.5920    2.5300 o         1 MOL     -0.697038
     15 H4         -5.5350   -0.8070    4.4900 hn        1 MOL      0.165596
     16 H5         -5.5070   -1.0840    1.7140 h1        1 MOL     -0.076466
     17 H6         -5.3180    1.3560    1.8060 hc        1 MOL     -0.007721
     18 H7         -4.7930    1.3750    3.4290 hc        1 MOL     -0.007721
     19 N2         -2.5450   -1.2670    2.8410 n         1 MOL     -0.038929
     20 C7         -1.1090   -1.0710    2.7970 c3        1 MOL      0.035353
     21 C8         -0.4600   -2.2810    2.0990 c         1 MOL      0.341526
     22 O5         -0.6480   -3.4220    2.4150 o         1 MOL     -0.491751
     23 C9         -0.5810   -0.7810    4.2500 c3        1 MOL     -0.061160
     24 C10        -1.1740    0.5130    4.8820 c3        1 MOL     -0.233081
     25 C11        -1.1420    1.8080    4.0220 c3        1 MOL      0.066417
     26 C12        -1.3740    3.1010    4.7560 c3        1 MOL      0.024218
     27 N3         -0.2760    3.4430    5.6660 n4        1 MOL     -0.332906
     28 H8         -2.9540   -1.8350    3.5650 hn        1 MOL      0.174664
     29 H9         -0.8680   -0.2760    2.0870 h1        1 MOL      0.075811
     30 H10         0.4740   -0.5390    4.1550 hc        1 MOL      0.063321
     31 H11        -0.6960   -1.6320    4.9170 hc        1 MOL      0.063321
     32 H12        -0.7370    0.5970    5.8820 hc        1 MOL      0.068632
     33 H13        -2.1930    0.3020    5.1980 hc        1 MOL      0.068632
     34 H14        -1.9570    1.7900    3.2840 hc        1 MOL      0.052720
     35 H15        -0.1170    1.8420    3.6520 hc        1 MOL      0.052720
     36 H16        -2.3210    3.0290    5.2920 hx        1 MOL      0.067687
     37 H17        -1.5560    3.9340    4.0860 hx        1 MOL      0.067687
     38 H18         0.0100    2.7070    6.3010 hn        1 MOL      0.316221
     39 H19         0.5110    3.6920    5.0830 hn        1 MOL      0.316221
     40 H20        -0.3670    4.2650    6.2430 hn        1 MOL      0.316221
     41 N4          0.3990   -2.1650    1.0780 n         1 MOL     -0.042810
     42 C13         1.1000   -0.9940    0.4870 c3        1 MOL     -0.419597
     43 C14         1.6960    0.0310    1.5200 c         1 MOL      0.760958
     44 O6          1.1980    1.1100    1.5880 o         1 MOL     -0.648531
     45 C15         0.1750   -0.3710   -0.5990 c3        1 MOL     -0.228681
     46 C16        -0.2390   -1.3910   -1.7350 c         1 MOL      0.674623
     47 O7         -1.2480   -1.0880   -2.3380 o         1 MOL     -0.716065
     48 O8          0.4340   -2.4150   -1.8470 o         1 MOL     -0.716065
     49 H21         0.5940   -3.0900    0.7130 hn        1 MOL      0.115398
     50 H22         2.0550   -1.2840    0.0400 h1        1 MOL      0.094108
     51 H23         0.7390    0.4820   -0.9960 hc        1 MOL      0.146850
     52 H24        -0.7400   -0.0920   -0.0850 hc        1 MOL      0.146850
     53 N5          2.7310   -0.1570    2.2630 n         1 MOL     -0.400706
     54 C17         3.7170   -1.1950    2.2230 c3        1 MOL     -0.078041
     55 C18         4.9120   -0.9860    3.1570 c         1 MOL      0.567732
     56 O9          4.8310   -0.1700    4.1150 o         1 MOL     -0.574675
     57 H25         2.9660    0.6020    2.8820 hn        1 MOL      0.237158
     58 H26         4.0600   -1.1020    1.1880 h1        1 MOL      0.081912
     59 H27         3.2900   -2.1740    2.4300 h1        1 MOL      0.081912
     60 N6          6.0320   -1.6730    2.9680 n         1 MOL     -0.406807
     61 C19         6.3610   -2.7180    1.9810 c3        1 MOL     -0.078579
     62 C20         7.1850   -2.3020    0.7700 c         1 MOL      0.517215
     63 O10         8.1800   -1.6630    0.8730 o         1 MOL     -0.454975
     64 C21         7.1150   -3.9080    2.6160 c3        1 MOL     -0.002715
     65 C22         8.5210   -3.5430    3.2100 c         1 MOL      0.682345
     66 O11         8.4440   -2.7140    4.1240 o         1 MOL     -0.645511
     67 O12         9.5200   -4.1900    2.9230 o         1 MOL     -0.645511
     68 H28         6.6960   -1.5880    3.7240 hn        1 MOL      0.280560
     69 H29         5.3740   -3.0510    1.6590 h1        1 MOL      0.033884
     70 H30         7.1270   -4.6640    1.8360 hc        1 MOL     -0.019851
     71 H31         6.4150   -4.3040    3.3680 hc        1 MOL     -0.019851
     72 N7          6.7120   -2.7500   -0.3590 n         1 MOL     -0.290136
     73 C23         7.2810   -2.6030   -1.6690 c3        1 MOL     -0.105647
     74 C24         7.2350   -1.1860   -2.2930 c         1 MOL      0.482613
     75 O13         8.2370   -0.6580   -2.7190 o         1 MOL     -0.496588
     76 H32         5.7810   -3.1200   -0.3210 hn        1 MOL      0.192256
     77 H33         6.8310   -3.2810   -2.3890 h1        1 MOL      0.085159
     78 H34         8.3340   -2.8960   -1.7630 h1        1 MOL      0.085159
     79 N8          6.0470   -0.5720   -2.0820 n         1 MOL     -0.349700
     80 C25         5.8670    0.8850   -2.1380 c3        1 MOL     -0.082353
     81 C26         4.8190    1.2570   -1.0880 c         1 MOL      0.402625
     82 O14         3.9990    0.4220   -0.7500 o         1 MOL     -0.393550
     83 C27         5.5480    1.4390   -3.5540 c3        1 MOL      0.171110
     84 C28         5.4440    3.0220   -3.5820 c3        1 MOL     -0.216639
     85 O15         4.3060    0.9640   -4.0440 oh        1 MOL     -0.476521
     86 H35         5.2520   -1.0780   -1.7210 hn        1 MOL      0.173791
     87 H36         6.8090    1.2790   -1.7590 h1        1 MOL      0.136639
     88 H37         6.3800    1.1410   -4.1810 h1        1 MOL      0.069609
     89 H38         4.4150    0.0160   -3.9790 ho        1 MOL      0.300128
     90 H39         5.4190    3.3470   -4.6260 hc        1 MOL      0.068361
     91 H40         4.4900    3.3320   -3.1490 hc        1 MOL      0.068361
     92 H41         6.3110    3.4460   -3.0810 hc        1 MOL      0.068361
     93 N9          4.7260    2.4920   -0.7430 n         1 MOL     -0.233539
     94 C29         3.7380    3.0120    0.2880 c3        1 MOL     -0.241290
     95 C30         2.4650    3.7310   -0.2130 c         1 MOL      0.319157
     96 O16         1.8180    4.4690    0.5240 o         1 MOL     -0.520228
     97 C31         4.4760    3.8730    1.3130 c3        1 MOL      0.214941
     98 C32         5.0160    5.1940    0.7220 c3        1 MOL      0.023119
     99 C33         5.4950    2.9910    2.0400 c3        1 MOL     -0.150589
    100 C34         6.0090    6.0100    1.6580 c3        1 MOL     -0.265575
    101 H42         5.4250    3.1040   -1.1420 hn        1 MOL      0.245118
    102 H43         3.3220    2.1590    0.8270 h1        1 MOL      0.228615
    103 H44         3.7970    4.1290    2.1210 hc        1 MOL     -0.003440
    104 H45         4.1330    5.8160    0.5910 hc        1 MOL      0.010649
    105 H46         5.4220    5.0930   -0.2880 hc        1 MOL      0.010649
    106 H47         4.9730    2.0650    2.2300 hc        1 MOL      0.030835
    107 H48         6.3340    2.9000    1.3590 hc        1 MOL      0.030835
    108 H49         5.8490    3.4170    2.9930 hc        1 MOL      0.030835
    109 H50         7.0440    5.6550    1.6790 hc        1 MOL      0.074420
    110 H51         6.0430    7.0770    1.4110 hc        1 MOL      0.074420
    111 H52         5.6030    5.9830    2.6650 hc        1 MOL      0.074420
    112 N10         2.1510    3.6000   -1.4730 n         1 MOL     -0.012176
    113 C35         1.0860    4.3310   -2.2110 c3        1 MOL     -0.045450
    114 C36        -0.4160    4.1160   -1.7070 c         1 MOL      0.323369
    115 O17        -1.3080    4.8940   -1.9640 o         1 MOL     -0.523841
    116 C37         1.1280    4.1050   -3.7690 c3        1 MOL      0.247435
    117 C38         1.2190    2.6440   -4.0750 c3        1 MOL     -0.292664
    118 O18         2.3310    4.7270   -4.1930 oh        1 MOL     -0.644579
    119 H53         2.7740    3.0260   -2.0220 hn        1 MOL      0.085527
    120 H54         1.2150    5.4050   -2.0550 h1        1 MOL      0.121691
    121 H55         0.2650    4.6260   -4.1950 h1        1 MOL      0.064869
    122 H56         2.5230    4.3210   -5.0480 ho        1 MOL      0.418493
    123 H57         2.1190    2.1480   -3.7140 hc        1 MOL      0.084367
    124 H58         0.2970    2.1410   -3.7730 hc        1 MOL      0.084367
    125 H59         1.3680    2.5150   -5.1460 hc        1 MOL      0.084367
    126 N11        -0.6310    3.0490   -0.9370 n         1 MOL     -0.098027
    127 C39        -1.9580    2.6840   -0.4520 c3        1 MOL      0.025495
    128 C40        -3.1410    2.3540   -1.4300 c         1 MOL      0.462407
    129 O19        -2.9780    2.5870   -2.6490 o         1 MOL     -0.547775
    130 C41        -2.4880    3.6880    0.5740 c3        1 MOL      0.125039
    131 C42        -1.3590    4.2040    1.4480 c3        1 MOL     -0.283539
    132 O20        -3.4800    3.2340    1.4350 oh        1 MOL     -0.561788
    133 H60         0.1810    2.4990   -0.7020 hn        1 MOL      0.138366
    134 H61        -1.8270    1.7690    0.1210 h1        1 MOL     -0.008651
    135 H62        -2.7860    4.6230    0.1010 h1        1 MOL      0.059408
    136 H63        -3.7890    4.0460    1.8480 ho        1 MOL      0.398282
    137 H64        -1.7590    4.7720    2.2870 hc        1 MOL      0.073703
    138 H65        -0.7630    3.4080    1.8980 hc        1 MOL      0.073703
    139 H66        -0.6760    4.8450    0.8980 hc        1 MOL      0.073703
    140 N12        -4.2140    1.7420   -0.9910 n         1 MOL     -0.058510
    141 C43        -5.2650    1.3090   -1.9290 c3        1 MOL     -0.070481
    142 C44        -5.2820   -0.2350   -2.0710 c         1 MOL      0.485396
    143 O21        -5.7630   -0.7080   -3.1030 o         1 MOL     -0.557572
    144 C45        -6.6260    1.8890   -1.4850 c3        1 MOL     -0.074972
    145 C46        -6.6150    3.3800   -1.1380 c3        1 MOL      0.155628
    146 C47        -6.0950    4.2480   -2.2980 c3        1 MOL      0.011345
    147 C48        -5.5650    5.6260   -1.6520 c3        1 MOL      0.034532
    148 N13        -4.9280    6.4450   -2.6430 n4        1 MOL     -0.434008
    149 H67        -4.2910    1.4850   -0.0180 hn        1 MOL      0.059802
    150 H68        -5.1490    1.7640   -2.9120 h1        1 MOL      0.078357
    151 H69        -6.9020    1.3230   -0.5900 hc        1 MOL      0.039670
    152 H70        -7.3360    1.7610   -2.3060 hc        1 MOL      0.039670
    153 H71        -5.9940    3.5920   -0.2680 hc        1 MOL     -0.020262
    154 H72        -7.6040    3.7610   -0.8750 hc        1 MOL     -0.020262
    155 H73        -6.9820    4.4340   -2.9100 hc        1 MOL      0.011896
    156 H74        -5.3250    3.7790   -2.9030 hc        1 MOL      0.011896
    157 H75        -4.8210    5.2990   -0.9160 hx        1 MOL      0.059983
    158 H76        -6.3280    6.1230   -1.0640 hx        1 MOL      0.059983
    159 H77        -4.5540    7.2070   -2.0880 hn        1 MOL      0.347874
    160 H78        -4.1900    6.0890   -3.2420 hn        1 MOL      0.347874
    161 H79        -5.6130    6.8270   -3.2750 hn        1 MOL      0.347874
    162 N14        -4.6630   -1.0510   -1.2160 n         1 MOL      0.030280
    163 C49        -4.7510   -2.5010   -1.3200 c3        1 MOL     -0.026834
    164 C50        -6.1130   -3.1640   -1.1000 c         1 MOL      0.406174
    165 O22        -7.0060   -2.6490   -0.4410 o         1 MOL     -0.484236
    166 C51        -3.6310   -3.1160   -0.4080 c3        1 MOL      0.409279
    167 C52        -3.4920   -4.6660   -0.5400 c3        1 MOL     -0.943057
    168 C53        -3.0040   -5.3180   -1.8170 c         1 MOL      1.194030
    169 O23        -3.9240   -5.7150   -2.5310 o         1 MOL     -0.904533
    170 O24        -1.7780   -5.5490   -1.9860 o         1 MOL     -0.904533
    171 H80        -3.9960   -0.6730   -0.5630 hn        1 MOL     -0.043293
    172 H81        -4.5700   -2.8480   -2.3310 h1        1 MOL     -0.073880
    173 H82        -3.9570   -2.9080    0.6040 hc        1 MOL      0.010060
    174 H83        -2.6730   -2.6090   -0.5040 hc        1 MOL      0.010060
    175 H84        -4.4190   -5.1760   -0.2980 hc        1 MOL      0.218337
    176 H85        -2.8250   -4.9840    0.2620 hc        1 MOL      0.218337
    177 N15        -6.2650   -4.2700   -1.8240 n         1 MOL     -0.460340
    178 C54        -7.5830   -5.0130   -1.9130 c3        1 MOL      0.094757
    179 H86        -7.6700   -5.4830   -2.8930 h1        1 MOL      0.021550
    180 H87        -7.6220   -5.7800   -1.1390 h1        1 MOL      0.021550
    181 H88        -8.4060   -4.3130   -1.7720 h1        1 MOL      0.021550
    182 H89        -5.5270   -4.5500   -2.4500 hn        1 MOL      0.522595
    183 Ca1         0.5350   -4.8820   -2.8390 Ca        1 MOL      1.691509
    184 O25         0.2840   -5.7760   -5.3350 oh        1 MOL     -0.900898
    185 H90        -0.3730   -5.5200   -5.9900 ho        1 MOL      0.449739
    186 H91         0.7150   -6.5480   -5.7190 ho        1 MOL      0.449739
    187 O26        -1.2700   -3.0800   -4.0630 oh        1 MOL     -0.900898
    188 H92        -1.3860   -2.5040   -3.3130 ho        1 MOL      0.449739
    189 H93        -1.2360   -2.4900   -4.8130 ho        1 MOL      0.449739
    190 O27         2.0600   -3.3950   -4.4240 oh        1 MOL     -0.900898
    191 H94         2.8100   -3.0790   -3.9170 ho        1 MOL      0.449739
    192 H95         2.1440   -2.9560   -5.2710 ho        1 MOL      0.449739
@<TRIPOS>BOND
     1    1    2 1   
     2    1    4 1   
     3    1    5 1   
     4    1    6 1   
     5    2    3 2   
     6    2    7 1   
     7    7    8 1   
     8    7   15 1   
     9    8    9 1   
    10    8   11 1   
    11    8   16 1   
    12    9   10 2   
    13    9   19 1   
    14   11   12 1   
    15   11   17 1   
    16   11   18 1   
    17   12   13 1   
    18   12   14 1   
    19   19   20 1   
    20   19   28 1   
    21   20   21 1   
    22   20   23 1   
    23   20   29 1   
    24   21   22 2   
    25   21   41 1   
    26   23   24 1   
    27   23   30 1   
    28   23   31 1   
    29   24   25 1   
    30   24   32 1   
    31   24   33 1   
    32   25   26 1   
    33   25   34 1   
    34   25   35 1   
    35   26   27 1   
    36   26   36 1   
    37   26   37 1   
    38   27   38 1   
    39   27   39 1   
    40   27   40 1   
    41   41   42 1   
    42   41   49 1   
    43   42   43 1   
    44   42   45 1   
    45   42   50 1   
    46   43   44 2   
    47   43   53 1   
    48   45   46 1   
    49   45   51 1   
    50   45   52 1   
    51   46   47 1   
    52   46   48 1   
    53   53   54 1   
    54   53   57 1   
    55   54   55 1   
    56   54   58 1   
    57   54   59 1   
    58   55   56 2   
    59   55   60 1   
    60   60   61 1   
    61   60   68 1   
    62   61   62 1   
    63   61   64 1   
    64   61   69 1   
    65   62   63 2   
    66   62   72 1   
    67   64   65 1   
    68   64   70 1   
    69   64   71 1   
    70   65   66 1   
    71   65   67 1   
    72   72   73 1   
    73   72   76 1   
    74   73   74 1   
    75   73   77 1   
    76   73   78 1   
    77   74   75 2   
    78   74   79 1   
    79   79   80 1   
    80   79   86 1   
    81   80   81 1   
    82   80   83 1   
    83   80   87 1   
    84   81   82 2   
    85   81   93 1   
    86   83   84 1   
    87   83   85 1   
    88   83   88 1   
    89   84   90 1   
    90   84   91 1   
    91   84   92 1   
    92   85   89 1   
    93   93   94 1   
    94   93  101 1   
    95   94   95 1   
    96   94   97 1   
    97   94  102 1   
    98   95   96 2   
    99   95  112 1   
   100   97   98 1   
   101   97   99 1   
   102   97  103 1   
   103   98  100 1   
   104   98  104 1   
   105   98  105 1   
   106   99  106 1   
   107   99  107 1   
   108   99  108 1   
   109  100  109 1   
   110  100  110 1   
   111  100  111 1   
   112  112  113 1   
   113  112  119 1   
   114  113  114 1   
   115  113  116 1   
   116  113  120 1   
   117  114  115 2   
   118  114  126 1   
   119  116  117 1   
   120  116  118 1   
   121  116  121 1   
   122  117  123 1   
   123  117  124 1   
   124  117  125 1   
   125  118  122 1   
   126  126  127 1   
   127  126  133 1   
   128  127  128 1   
   129  127  130 1   
   130  127  134 1   
   131  128  129 2   
   132  128  140 1   
   133  130  131 1   
   134  130  132 1   
   135  130  135 1   
   136  131  137 1   
   137  131  138 1   
   138  131  139 1   
   139  132  136 1   
   140  140  141 1   
   141  140  149 1   
   142  141  142 1   
   143  141  144 1   
   144  141  150 1   
   145  142  143 2   
   146  142  162 1   
   147  144  145 1   
   148  144  151 1   
   149  144  152 1   
   150  145  146 1   
   151  145  153 1   
   152  145  154 1   
   153  146  147 1   
   154  146  155 1   
   155  146  156 1   
   156  147  148 1   
   157  147  157 1   
   158  147  158 1   
   159  148  159 1   
   160  148  160 1   
   161  148  161 1   
   162  162  163 1   
   163  162  171 1   
   164  163  164 1   
   165  163  166 1   
   166  163  172 1   
   167  164  165 2   
   168  164  177 1   
   169  166  167 1   
   170  166  173 1   
   171  166  174 1   
   172  167  168 1   
   173  167  175 1   
   174  167  176 1   
   175  168  169 1   
   176  168  170 1   
   177  177  178 1   
   178  177  182 1   
   179  178  179 1   
   180  178  180 1   
   181  178  181 1   
   182  184  185 1   
   183  184  186 1   
   184  187  188 1   
   185  187  189 1   
   186  190  191 1   
   187  190  192 1   
@<TRIPOS>SUBSTRUCTURE
     1 MOL         1 TEMP              0 ****  ****    0 ROOT
