@<TRIPOS>MOLECULE
MOL
  189   185     1     0     0
SMALL
resp


@<TRIPOS>ATOM
      1 C1          3.7720    4.9540    2.6710 c3        1 MOL     -0.284577
      2 C2          2.8150    4.5050    1.5050 c         1 MOL      0.704982
      3 O1          2.8020    3.3650    1.0590 o         1 MOL     -0.519228
      4 H1          4.8050    4.9170    2.3270 hc        1 MOL      0.064439
      5 H2          3.5260    5.9730    2.9710 hc        1 MOL      0.064439
      6 H3          3.6480    4.2840    3.5220 hc        1 MOL      0.064439
      7 N1          2.0850    5.5050    1.0150 n         1 MOL     -1.120124
      8 C3          1.1320    5.5190   -0.0520 c3        1 MOL      0.188863
      9 C4         -0.2310    4.8810    0.4700 c         1 MOL      0.735773
     10 O2         -1.0890    4.5940   -0.3390 o         1 MOL     -0.559522
     11 C5          1.5930    4.8380   -1.3450 c3        1 MOL     -0.867069
     12 C6          3.0040    5.0740   -1.7390 c         1 MOL      1.388360
     13 O3          3.6920    4.1500   -2.2070 o         1 MOL     -0.861994
     14 O4          3.5340    6.1950   -1.6050 o         1 MOL     -0.861994
     15 H4          2.1810    6.4420    1.3770 hn        1 MOL      0.476839
     16 H5          0.8900    6.5470   -0.3200 h1        1 MOL      0.121789
     17 H6          0.9520    5.1480   -2.1760 hc        1 MOL      0.200841
     18 H7          1.6220    3.7510   -1.2950 hc        1 MOL      0.200841
     19 N2         -0.5380    4.7270    1.7630 n         1 MOL     -0.636342
     20 C7         -1.8630    4.1340    2.2830 c3        1 MOL     -0.301720
     21 C8         -2.9410    5.1740    2.3390 c         1 MOL      0.597893
     22 O5         -2.7290    6.3130    2.6140 o         1 MOL     -0.581250
     23 C9         -1.6290    3.2660    3.5710 c3        1 MOL      0.241933
     24 C10        -1.3300    4.1730    4.7690 c3        1 MOL      0.384860
     25 C11        -0.7170    2.0720    3.4780 c3        1 MOL     -0.310834
     26 C12        -0.9390    3.4940    6.0300 c3        1 MOL     -0.169768
     27 H8          0.2260    4.8160    2.4260 hn        1 MOL      0.435703
     28 H9         -2.0160    3.3830    1.5090 h1        1 MOL      0.216464
     29 H10        -2.6120    2.8480    3.8020 hc        1 MOL     -0.007389
     30 H11        -2.1910    4.7940    5.0190 hc        1 MOL     -0.097431
     31 H12        -0.4910    4.8050    4.4980 hc        1 MOL     -0.097431
     32 H13        -0.9420    1.4970    4.3810 hc        1 MOL      0.080850
     33 H14        -0.9500    1.5340    2.5630 hc        1 MOL      0.080850
     34 H15         0.3490    2.3060    3.5050 hc        1 MOL      0.080850
     35 H16        -1.6110    2.6590    6.2600 hc        1 MOL      0.013389
     36 H17         0.0270    3.0190    5.8680 hc        1 MOL      0.013389
     37 H18        -0.8450    4.2210    6.8360 hc        1 MOL      0.013389
     38 N3         -4.2180    4.8580    2.3120 n         1 MOL     -0.386090
     39 C13        -4.8100    3.5730    2.0330 c3        1 MOL     -0.057680
     40 C14        -4.5220    3.0880    0.5920 c         1 MOL      0.405312
     41 O6         -4.5020    1.8350    0.4290 o         1 MOL     -0.528038
     42 C15        -6.2800    3.6030    2.3080 c3        1 MOL     -0.123279
     43 C16        -6.6580    4.2650    3.6100 c         1 MOL      0.671898
     44 O7         -6.3930    3.7010    4.7390 o         1 MOL     -0.676554
     45 O8         -7.3630    5.3140    3.5760 o         1 MOL     -0.676554
     46 H19        -4.8530    5.6390    2.4100 hn        1 MOL      0.288253
     47 H20        -4.4040    2.7770    2.6530 h1        1 MOL      0.075830
     48 H21        -6.6040    2.5650    2.4020 hc        1 MOL      0.035689
     49 H22        -6.7800    4.2720    1.6010 hc        1 MOL      0.035689
     50 N4         -4.5330    3.9840   -0.4220 n         1 MOL     -0.180284
     51 C17        -4.3790    3.5970   -1.7760 c3        1 MOL     -0.382062
     52 C18        -5.6750    2.9720   -2.2630 c         1 MOL      0.556423
     53 O9         -6.7010    3.5710   -2.3740 o         1 MOL     -0.563205
     54 H23        -4.4580    4.9550   -0.1510 hn        1 MOL      0.262550
     55 H24        -3.4580    3.0530   -1.9950 h1        1 MOL      0.152839
     56 H25        -4.3010    4.5310   -2.3370 h1        1 MOL      0.152839
     57 N5         -5.5740    1.6570   -2.5770 n         1 MOL     -0.325724
     58 C19        -6.6160    0.8270   -3.1890 c3        1 MOL      0.013883
     59 C20        -7.4730    0.0750   -2.1230 c         1 MOL      0.424477
     60 O10        -8.3820   -0.6940   -2.5240 o         1 MOL     -0.555545
     61 C21        -6.1190   -0.1560   -4.2030 c3        1 MOL     -0.217869
     62 C22        -5.0300   -1.0850   -3.7180 c         1 MOL      0.770650
     63 O11        -4.5280   -1.7800   -4.6180 o         1 MOL     -0.711454
     64 O12        -4.6940   -1.1900   -2.4870 o         1 MOL     -0.711454
     65 H26        -4.6240    1.3050   -2.5190 hn        1 MOL      0.234739
     66 H27        -7.3340    1.4260   -3.7420 h1        1 MOL      0.086954
     67 H28        -5.5920    0.4180   -4.9660 hc        1 MOL      0.045971
     68 H29        -6.9350   -0.7280   -4.6410 hc        1 MOL      0.045971
     69 N6         -7.1870    0.2700   -0.8440 n         1 MOL     -0.272065
     70 C23        -7.7540   -0.4600    0.3370 c3        1 MOL     -0.265866
     71 C24        -7.3940   -1.9160    0.4370 c         1 MOL      0.512545
     72 O13        -7.9450   -2.5870    1.3300 o         1 MOL     -0.615024
     73 H30        -6.4460    0.9450   -0.7140 hn        1 MOL      0.270778
     74 H31        -8.8380   -0.3820    0.3710 h1        1 MOL      0.143260
     75 H32        -7.3930   -0.1060    1.3020 h1        1 MOL      0.143260
     76 N7         -6.5390   -2.4180   -0.4190 n         1 MOL      0.048423
     77 C25        -6.0680   -3.7540   -0.6090 c3        1 MOL      0.007940
     78 C26        -5.2450   -4.3280    0.5670 c         1 MOL      0.523120
     79 O14        -5.2200   -5.5260    0.6850 o         1 MOL     -0.515197
     80 C27        -7.2010   -4.6510   -1.2770 c3        1 MOL      0.008935
     81 C28        -8.0720   -4.0080   -2.4060 c3        1 MOL     -0.055212
     82 C29        -8.8190   -5.0190   -3.2580 c         1 MOL      0.636664
     83 N8         -9.2950   -4.6500   -4.3990 n         1 MOL     -0.786360
     84 O15        -9.0410   -6.1680   -2.9100 o         1 MOL     -0.596869
     85 H33        -6.1850   -1.8050   -1.1350 hn        1 MOL      0.011184
     86 H34        -5.3270   -3.6940   -1.4010 h1        1 MOL      0.063968
     87 H35        -7.8880   -4.9520   -0.4810 hc        1 MOL     -0.005739
     88 H36        -6.6580   -5.5660   -1.5340 hc        1 MOL     -0.005739
     89 H37        -7.4480   -3.4330   -3.1010 hc        1 MOL      0.050006
     90 H38        -8.7830   -3.2690   -2.0270 hc        1 MOL      0.050006
     91 H39        -9.2880   -3.7190   -4.7840 hn        1 MOL      0.343528
     92 H40        -9.7520   -5.3700   -4.9430 hn        1 MOL      0.343528
     93 N9         -4.5310   -3.4760    1.3190 n         1 MOL     -0.290643
     94 C30        -3.7340   -3.8190    2.4800 c3        1 MOL     -0.267186
     95 C31        -2.2150   -3.6390    2.1060 c         1 MOL      0.714064
     96 O16        -1.2820   -4.1640    2.7710 o         1 MOL     -0.594234
     97 C32        -4.0150   -2.9540    3.7720 c3        1 MOL      0.327976
     98 C33        -3.9620   -1.5170    3.3810 c3        1 MOL     -0.346555
     99 C34        -5.3520   -3.2770    4.4720 c3        1 MOL     -0.346555
    100 H41        -4.4830   -2.5070    1.0440 hn        1 MOL      0.177070
    101 H42        -3.8520   -4.8910    2.6520 h1        1 MOL      0.124325
    102 H43        -3.1900   -3.0810    4.4760 hc        1 MOL     -0.019047
    103 H44        -2.9770   -1.2700    2.9940 hc        1 MOL      0.087179
    104 H45        -4.6720   -1.2460    2.5940 hc        1 MOL      0.087179
    105 H46        -4.1660   -0.8850    4.2510 hc        1 MOL      0.087179
    106 H47        -6.1310   -2.6040    4.0910 hc        1 MOL      0.087179
    107 H48        -5.6560   -4.3180    4.3860 hc        1 MOL      0.087179
    108 H49        -5.2390   -3.0140    5.5270 hc        1 MOL      0.087179
    109 N10        -1.9240   -2.7710    1.1490 n         1 MOL     -0.727256
    110 C35        -0.5070   -2.4480    0.9270 c3        1 MOL      0.375212
    111 C36         0.3070   -3.5830    0.2440 c         1 MOL      0.602041
    112 O17        -0.2750   -4.5430   -0.1880 o         1 MOL     -0.524069
    113 C37        -0.4010   -1.0650    0.2570 c3        1 MOL     -0.273231
    114 C38         0.9700   -0.3630    0.3090 c         1 MOL      0.618824
    115 N11         1.1230    0.6390   -0.4290 n         1 MOL     -0.478737
    116 O18         1.8870   -0.7880    1.0440 o         1 MOL     -0.589818
    117 H50        -2.6300   -2.2550    0.6480 hn        1 MOL      0.363904
    118 H51         0.0070   -2.2640    1.8760 h1        1 MOL     -0.002711
    119 H52        -1.1110   -0.3950    0.7400 hc        1 MOL      0.066964
    120 H53        -0.7770   -1.1660   -0.7670 hc        1 MOL      0.066964
    121 H54         0.3920    0.9510   -1.0510 hn        1 MOL      0.296082
    122 H55         2.0570    0.9570   -0.6660 hn        1 MOL      0.296082
    123 N12         1.6530   -3.4450    0.2660 n         1 MOL     -0.549708
    124 C39         2.7190   -4.3760   -0.2310 c3        1 MOL      0.001080
    125 C40         4.1530   -3.8470    0.2060 c         1 MOL      0.559536
    126 O19         4.3670   -2.6840    0.4830 o         1 MOL     -0.491462
    127 C41         2.5820   -4.4100   -1.7720 c3        1 MOL     -0.251280
    128 C42         2.5080   -3.0220   -2.3780 ca        1 MOL      0.038439
    129 C43         3.7490   -2.2890   -2.6170 ca        1 MOL     -0.103991
    130 C44         1.2150   -2.4870   -2.5840 ca        1 MOL     -0.103991
    131 C45         3.6120   -0.9970   -3.1390 ca        1 MOL     -0.345686
    132 C46         1.1250   -1.1890   -3.1610 ca        1 MOL     -0.345686
    133 C47         2.2990   -0.4320   -3.3910 ca        1 MOL      0.375567
    134 O20         2.1360    0.8450   -3.8240 oh        1 MOL     -0.540603
    135 H56         2.0270   -2.5380    0.5070 hn        1 MOL      0.294653
    136 H57         2.5150   -5.3680    0.1910 h1        1 MOL      0.110315
    137 H58         1.6720   -4.9160   -2.0960 hc        1 MOL      0.093681
    138 H59         3.4050   -4.9280   -2.2650 hc        1 MOL      0.093681
    139 H60         4.7360   -2.6560   -2.3860 ha        1 MOL      0.141540
    140 H61         0.3450   -3.0540   -2.2990 ha        1 MOL      0.141540
    141 H62         4.4700   -0.3660   -3.3020 ha        1 MOL      0.181094
    142 H63         0.1430   -0.7930   -3.3980 ha        1 MOL      0.181094
    143 H64         2.9960    1.2570   -3.7420 ho        1 MOL      0.395850
    144 N13         5.0670   -4.7920    0.3320 n         1 MOL     -0.464169
    145 C48         6.4660   -4.4730    0.5850 c3        1 MOL      0.200719
    146 C49         7.1570   -4.2740   -0.8010 c         1 MOL      0.547117
    147 O21         7.3080   -5.2390   -1.5670 o         1 MOL     -0.592010
    148 C50         7.0170   -5.7100    1.3820 c3        1 MOL      0.139006
    149 C51         6.5880   -5.7160    2.8370 c3        1 MOL     -0.098172
    150 C52         7.3080   -6.8600    3.5950 c         1 MOL      0.607613
    151 O22         6.7280   -7.9720    3.6590 o         1 MOL     -0.662861
    152 O23         8.4930   -6.6580    3.9440 o         1 MOL     -0.662861
    153 H65         4.6300   -5.6660    0.0820 hn        1 MOL      0.266270
    154 H66         6.5080   -3.5570    1.1760 h1        1 MOL     -0.066796
    155 H67         8.0960   -5.7260    1.2390 hc        1 MOL     -0.010763
    156 H68         6.6360   -6.5990    0.8730 hc        1 MOL     -0.010763
    157 H69         5.5050   -5.7900    2.8520 hc        1 MOL     -0.009198
    158 H70         6.9370   -4.7720    3.2510 hc        1 MOL     -0.009198
    159 N14         7.6480   -3.1010   -1.1780 n         1 MOL     -0.578556
    160 C53         7.5280   -1.7980   -0.5200 c3        1 MOL      0.235546
    161 C54         8.5030   -1.6350    0.6900 c         1 MOL      0.385522
    162 O24         9.6280   -2.1380    0.5390 o         1 MOL     -0.539094
    163 C55         7.5800   -0.7200   -1.5410 c3        1 MOL     -0.043337
    164 C56         7.5500    0.6840   -0.9590 c3        1 MOL     -0.281016
    165 C57         6.9580    1.8610   -1.8300 c         1 MOL      0.730736
    166 O25         7.1880    1.8620   -3.0830 o         1 MOL     -0.653788
    167 O26         6.2570    2.7750   -1.3130 o         1 MOL     -0.653788
    168 H71         8.3920   -3.2430   -1.8530 hn        1 MOL      0.319326
    169 H72         6.5200   -1.7930   -0.1020 h1        1 MOL      0.057652
    170 H73         6.7080   -0.8340   -2.1840 hc        1 MOL      0.023410
    171 H74         8.4580   -0.7400   -2.1800 hc        1 MOL      0.023410
    172 H75         8.5510    0.9730   -0.6430 hc        1 MOL      0.047599
    173 H76         6.9660    0.6950   -0.0360 hc        1 MOL      0.047599
    174 N15         8.0390   -1.0510    1.7600 n         1 MOL     -0.135774
    175 C58         8.8240   -0.7110    2.9110 c3        1 MOL     -0.187871
    176 H77         9.8790   -0.6930    2.6380 h1        1 MOL      0.086139
    177 H78         8.5270    0.2710    3.2760 h1        1 MOL      0.086139
    178 H79         8.6640   -1.4540    3.6920 h1        1 MOL      0.086139
    179 H80         7.1130   -0.6520    1.6290 hn        1 MOL      0.220198
    180 Ca1         5.9980    5.3460   -1.6940 Ca        1 MOL      1.593022
    181 O27         7.2430    4.3130   -3.7950 oh        1 MOL     -0.916466
    182 H81         7.1520    3.4050   -3.4870 ho        1 MOL      0.406716
    183 H82         7.9300    4.2680   -4.4570 ho        1 MOL      0.406716
    184 O28         8.3970    4.5860   -0.7660 oh        1 MOL     -0.916466
    185 H83         9.1330    5.0770   -1.1340 ho        1 MOL      0.406716
    186 H84         8.8050    3.8990   -0.2280 ho        1 MOL      0.406716
    187 O29         5.3740    7.1010   -3.6550 oh        1 MOL     -0.916466
    188 H85         6.2470    7.4970   -3.6020 ho        1 MOL      0.406716
    189 H86         4.9680    7.5220   -4.4080 ho        1 MOL      0.406716
@<TRIPOS>BOND
     1    1    2 1   
     2    1    4 1   
     3    1    5 1   
     4    1    6 1   
     5    2    3 2   
     6    2    7 1   
     7    7    8 1   
     8    7   15 1   
     9    8    9 1   
    10    8   11 1   
    11    8   16 1   
    12    9   10 2   
    13    9   19 1   
    14   11   12 1   
    15   11   17 1   
    16   11   18 1   
    17   12   13 1   
    18   12   14 1   
    19   19   20 1   
    20   19   27 1   
    21   20   21 1   
    22   20   23 1   
    23   20   28 1   
    24   21   22 2   
    25   21   38 1   
    26   23   24 1   
    27   23   25 1   
    28   23   29 1   
    29   24   26 1   
    30   24   30 1   
    31   24   31 1   
    32   25   32 1   
    33   25   33 1   
    34   25   34 1   
    35   26   35 1   
    36   26   36 1   
    37   26   37 1   
    38   38   39 1   
    39   38   46 1   
    40   39   40 1   
    41   39   42 1   
    42   39   47 1   
    43   40   41 2   
    44   40   50 1   
    45   42   43 1   
    46   42   48 1   
    47   42   49 1   
    48   43   44 1   
    49   43   45 1   
    50   50   51 1   
    51   50   54 1   
    52   51   52 1   
    53   51   55 1   
    54   51   56 1   
    55   52   53 2   
    56   52   57 1   
    57   57   58 1   
    58   57   65 1   
    59   58   59 1   
    60   58   61 1   
    61   58   66 1   
    62   59   60 2   
    63   59   69 1   
    64   61   62 1   
    65   61   67 1   
    66   61   68 1   
    67   62   63 1   
    68   62   64 1   
    69   69   70 1   
    70   69   73 1   
    71   70   71 1   
    72   70   74 1   
    73   70   75 1   
    74   71   72 2   
    75   71   76 1   
    76   76   77 1   
    77   76   85 1   
    78   77   78 1   
    79   77   80 1   
    80   77   86 1   
    81   78   79 2   
    82   78   93 1   
    83   80   81 1   
    84   80   87 1   
    85   80   88 1   
    86   81   82 1   
    87   81   89 1   
    88   81   90 1   
    89   82   83 1   
    90   82   84 2   
    91   83   91 1   
    92   83   92 1   
    93   93   94 1   
    94   93  100 1   
    95   94   95 1   
    96   94   97 1   
    97   94  101 1   
    98   95   96 2   
    99   95  109 1   
   100   97   98 1   
   101   97   99 1   
   102   97  102 1   
   103   98  103 1   
   104   98  104 1   
   105   98  105 1   
   106   99  106 1   
   107   99  107 1   
   108   99  108 1   
   109  109  110 1   
   110  109  117 1   
   111  110  111 1   
   112  110  113 1   
   113  110  118 1   
   114  111  112 2   
   115  111  123 1   
   116  113  114 1   
   117  113  119 1   
   118  113  120 1   
   119  114  115 1   
   120  114  116 2   
   121  115  121 1   
   122  115  122 1   
   123  123  124 1   
   124  123  135 1   
   125  124  125 1   
   126  124  127 1   
   127  124  136 1   
   128  125  126 2   
   129  125  144 1   
   130  127  128 1   
   131  127  137 1   
   132  127  138 1   
   133  128  129 ar  
   134  128  130 ar  
   135  129  131 ar  
   136  129  139 1   
   137  130  132 ar  
   138  130  140 1   
   139  131  133 ar  
   140  131  141 1   
   141  132  133 ar  
   142  132  142 1   
   143  133  134 1   
   144  134  143 1   
   145  144  145 1   
   146  144  153 1   
   147  145  146 1   
   148  145  148 1   
   149  145  154 1   
   150  146  147 2   
   151  146  159 1   
   152  148  149 1   
   153  148  155 1   
   154  148  156 1   
   155  149  150 1   
   156  149  157 1   
   157  149  158 1   
   158  150  151 1   
   159  150  152 1   
   160  159  160 1   
   161  159  168 1   
   162  160  161 1   
   163  160  163 1   
   164  160  169 1   
   165  161  162 2   
   166  161  174 1   
   167  163  164 1   
   168  163  170 1   
   169  163  171 1   
   170  164  165 1   
   171  164  172 1   
   172  164  173 1   
   173  165  166 1   
   174  165  167 1   
   175  174  175 1   
   176  174  179 1   
   177  175  176 1   
   178  175  177 1   
   179  175  178 1   
   180  181  182 1   
   181  181  183 1   
   182  184  185 1   
   183  184  186 1   
   184  187  188 1   
   185  187  189 1   
@<TRIPOS>SUBSTRUCTURE
     1 MOL         1 TEMP              0 ****  ****    0 ROOT
