@<TRIPOS>MOLECULE
MOL
  182   178     1     0     0
SMALL
resp


@<TRIPOS>ATOM
      1 C1          1.0360   -4.9670    6.0230 c3        1 MOL     -0.346944
      2 C2          1.1080   -4.6570    4.5130 c         1 MOL      0.816989
      3 O1          0.2230   -5.0470    3.7920 o         1 MOL     -0.627086
      4 H1          0.3630   -4.2590    6.5070 hc        1 MOL      0.086407
      5 H2          0.6620   -5.9800    6.1690 hc        1 MOL      0.086407
      6 H3          2.0310   -4.8790    6.4610 hc        1 MOL      0.086407
      7 N1          2.1310   -3.9830    4.0250 n         1 MOL     -0.682092
      8 C3          2.1060   -3.4800    2.6020 c3        1 MOL      0.141725
      9 C4          2.1930   -4.5790    1.5370 c         1 MOL      0.426710
     10 O2          2.8130   -5.6460    1.7510 o         1 MOL     -0.508312
     11 C5          3.1810   -2.4060    2.5620 c3        1 MOL      0.138634
     12 C6          3.0480   -1.4270    1.3590 c         1 MOL      0.448961
     13 O3          3.6890   -0.3610    1.3560 o         1 MOL     -0.652368
     14 O4          2.2190   -1.6970    0.4700 o         1 MOL     -0.652368
     15 H4          2.7110   -3.4980    4.6940 hn        1 MOL      0.332899
     16 H5          1.1460   -3.0040    2.4490 h1        1 MOL     -0.040509
     17 H6          4.1020   -2.9750    2.6140 hc        1 MOL      0.004030
     18 H7          3.2380   -1.8540    3.5000 hc        1 MOL      0.004030
     19 N2          1.6140   -4.2580    0.3480 n         1 MOL     -0.135673
     20 C7          1.4730   -5.1150   -0.8270 c3        1 MOL     -0.059438
     21 C8          2.5870   -5.0390   -1.8400 c         1 MOL      0.530890
     22 O5          3.0280   -6.0300   -2.3830 o         1 MOL     -0.547898
     23 C9          0.0340   -4.9490   -1.4120 c3        1 MOL      0.080425
     24 C10        -1.1510   -5.3700   -0.4710 c3        1 MOL     -0.041175
     25 C11        -1.2240   -6.7520    0.0690 c3        1 MOL     -0.092475
     26 C12        -1.0000   -7.9520   -0.8500 c3        1 MOL     -0.051707
     27 N3         -2.2190   -8.4240   -1.4930 n4        1 MOL     -0.134826
     28 H8          1.2740   -3.3060    0.2790 hn        1 MOL      0.213166
     29 H9          1.6350   -6.1360   -0.4990 h1        1 MOL      0.063123
     30 H10        -0.0890   -5.3300   -2.4270 hc        1 MOL     -0.017495
     31 H11        -0.0760   -3.8760   -1.6040 hc        1 MOL     -0.017495
     32 H12        -2.0540   -5.0320   -0.9960 hc        1 MOL      0.005257
     33 H13        -1.0150   -4.7450    0.4150 hc        1 MOL      0.005257
     34 H14        -2.2220   -6.9700    0.4220 hc        1 MOL      0.088566
     35 H15        -0.5360   -6.8520    0.9110 hc        1 MOL      0.088566
     36 H16        -0.6610   -8.7230   -0.1640 hx        1 MOL      0.095093
     37 H17        -0.2040   -7.7490   -1.5700 hx        1 MOL      0.095093
     38 H18        -3.0570   -8.5100   -0.9260 hn        1 MOL      0.232458
     39 H19        -2.4980   -7.6800   -2.1260 hn        1 MOL      0.232458
     40 H20        -2.2080   -9.2470   -2.0750 hn        1 MOL      0.232458
     41 N4          3.0800   -3.8180   -1.9470 n         1 MOL     -0.468415
     42 C13         4.2920   -3.5590   -2.7960 c3        1 MOL      0.326800
     43 C14         5.5490   -3.0050   -1.9650 c         1 MOL      0.236833
     44 O6          6.6580   -3.1580   -2.4860 o         1 MOL     -0.486005
     45 C15         4.0220   -2.5240   -3.8970 c3        1 MOL     -0.495021
     46 C16         3.4860   -1.1700   -3.4100 c         1 MOL      0.828136
     47 O7          3.3430   -0.8520   -2.2270 o         1 MOL     -0.745581
     48 O8          3.2870   -0.1900   -4.2040 o         1 MOL     -0.745581
     49 H21         2.6570   -3.0960   -1.3870 hn        1 MOL      0.272567
     50 H22         4.6200   -4.4470   -3.3270 h1        1 MOL      0.069903
     51 H23         3.3640   -3.0070   -4.6110 hc        1 MOL      0.127671
     52 H24         4.9430   -2.3590   -4.4500 hc        1 MOL      0.127671
     53 N5          5.3200   -2.5640   -0.7320 n         1 MOL      0.008848
     54 C17         6.2320   -1.9130    0.2580 c3        1 MOL     -0.306922
     55 C18         6.7460   -0.5900   -0.1810 c         1 MOL      0.590007
     56 O9          7.7510   -0.1070    0.3300 o         1 MOL     -0.562936
     57 H25         4.3420   -2.6850   -0.5140 hn        1 MOL     -0.016468
     58 H26         7.0890   -2.5840    0.2950 h1        1 MOL      0.141313
     59 H27         5.7410   -1.7940    1.2280 h1        1 MOL      0.141313
     60 N6          6.0580    0.0840   -1.0940 n         1 MOL     -0.096400
     61 C19         6.3450    1.4700   -1.5580 c3        1 MOL     -0.238703
     62 C20         5.2300    2.5250   -1.1870 c         1 MOL      0.711987
     63 O10         4.0850    2.2080   -0.8500 o         1 MOL     -0.609604
     64 C21         6.5430    1.3040   -3.0210 c3        1 MOL     -0.009865
     65 C22         7.7000    0.3440   -3.4350 c         1 MOL      0.617744
     66 N7          7.5640   -0.4980   -4.3660 n         1 MOL     -0.788041
     67 O11         8.7660    0.4360   -2.8650 o         1 MOL     -0.539371
     68 H28         5.2030   -0.3600   -1.3780 hn        1 MOL      0.204107
     69 H29         7.3240    1.7810   -1.1940 h1        1 MOL      0.089957
     70 H30         6.7780    2.2320   -3.5470 hc        1 MOL     -0.004744
     71 H31         5.5730    0.9660   -3.3950 hc        1 MOL     -0.004744
     72 H32         6.7060   -0.5610   -4.8950 hn        1 MOL      0.378241
     73 H33         8.3470   -1.1130   -4.5410 hn        1 MOL      0.378241
     74 N8          5.6220    3.8340   -1.2600 n         1 MOL     -0.478533
     75 C23         4.7130    4.9910   -1.1950 c3        1 MOL     -0.114521
     76 C24         3.7330    4.9620    0.0070 c         1 MOL      0.591102
     77 O12         4.1600    4.8480    1.1780 o         1 MOL     -0.528466
     78 H34         6.5870    4.0730   -1.4350 hn        1 MOL      0.341829
     79 H35         4.2080    5.0110   -2.1550 h1        1 MOL      0.095289
     80 H36         5.2510    5.9320   -1.0840 h1        1 MOL      0.095289
     81 N9          2.4660    5.1290   -0.1760 n         1 MOL     -0.521247
     82 C25         1.5140    4.9320    0.8760 c3        1 MOL      0.010051
     83 C26         1.4340    3.4500    1.3560 c         1 MOL      0.543279
     84 O13         2.1060    2.5280    0.8800 o         1 MOL     -0.417022
     85 C27         0.1470    5.4260    0.3390 c3        1 MOL     -0.066907
     86 C28         0.0750    6.8510   -0.0360 ca        1 MOL      0.052335
     87 C29        -0.8380    7.2460   -1.0080 ca        1 MOL     -0.173528
     88 C30         0.8860    7.8190    0.6850 ca        1 MOL     -0.173528
     89 C31        -1.0810    8.6300   -1.2430 ca        1 MOL     -0.260469
     90 C32         0.7030    9.1730    0.4230 ca        1 MOL     -0.260469
     91 C33        -0.2950    9.5680   -0.5380 ca        1 MOL      0.328729
     92 O14        -0.6020   10.8350   -0.7310 oh        1 MOL     -0.457634
     93 H37         2.1990    5.3620   -1.1280 hn        1 MOL      0.303256
     94 H38         1.8210    5.4580    1.7840 h1        1 MOL      0.098394
     95 H39        -0.6280    5.1520    1.0540 hc        1 MOL      0.033593
     96 H40        -0.1630    4.7810   -0.4840 hc        1 MOL      0.033593
     97 H41        -1.4120    6.5400   -1.5830 ha        1 MOL      0.145068
     98 H42         1.4970    7.4930    1.5080 ha        1 MOL      0.145068
     99 H43        -1.8150    8.9240   -1.9870 ha        1 MOL      0.162098
    100 H44         1.2930    9.8860    0.9800 ha        1 MOL      0.162098
    101 H45        -0.0470   11.3900   -0.1750 ho        1 MOL      0.366744
    102 N10         0.6340    3.3080    2.4350 n         1 MOL     -0.676551
    103 C34         0.3720    2.1210    3.2610 c3        1 MOL      0.454364
    104 C35        -0.0280    0.8140    2.5070 c         1 MOL      0.149593
    105 O15         0.5450    0.3780    1.5380 o         1 MOL     -0.472835
    106 C36         1.5480    1.8230    4.2600 c3        1 MOL      0.042865
    107 C37         1.0720    0.9210    5.4460 c3        1 MOL     -0.159939
    108 C38         2.2000    3.0280    4.9080 c3        1 MOL     -0.073925
    109 C39        -0.0090    1.5420    6.3540 c3        1 MOL     -0.068226
    110 H46         0.4180    4.2130    2.8310 hn        1 MOL      0.324936
    111 H47        -0.5310    2.4350    3.7910 h1        1 MOL     -0.015076
    112 H48         2.3510    1.3360    3.7060 hc        1 MOL      0.043073
    113 H49         1.8890    0.6720    6.1040 hc        1 MOL      0.052585
    114 H50         0.8700   -0.0850    5.0840 hc        1 MOL      0.052585
    115 H51         1.5340    3.8510    5.1590 hc        1 MOL      0.032709
    116 H52         2.9020    2.7120    5.6710 hc        1 MOL      0.032709
    117 H53         2.8230    3.6080    4.2110 hc        1 MOL      0.032709
    118 H54         0.5150    2.1170    7.1250 hc        1 MOL      0.010381
    119 H55        -0.5290    2.3190    5.7900 hc        1 MOL      0.010381
    120 H56        -0.6210    0.6880    6.6190 hc        1 MOL      0.010381
    121 N11        -1.0450    0.1650    3.0210 n         1 MOL     -0.167264
    122 C40        -1.3860   -1.2360    2.7410 c3        1 MOL      0.152345
    123 C41        -2.7390   -1.3800    1.9480 c         1 MOL      0.427847
    124 O16        -3.1130   -2.5370    1.7750 o         1 MOL     -0.536271
    125 C42        -1.4420   -2.0600    4.0210 c3        1 MOL      0.352199
    126 O17        -2.0850   -1.3660    5.1280 oh        1 MOL     -0.693443
    127 H57        -1.5500    0.6940    3.7180 hn        1 MOL      0.210532
    128 H58        -0.6660   -1.7720    2.1110 h1        1 MOL      0.028604
    129 H59        -0.4330   -2.3060    4.3700 h1        1 MOL     -0.017629
    130 H60        -1.8720   -3.0480    3.8830 h1        1 MOL     -0.017629
    131 H61        -2.0420   -1.9210    5.9120 ho        1 MOL      0.426372
    132 N12        -3.3630   -0.2940    1.5880 n         1 MOL     -0.318161
    133 C43        -4.3820   -0.1440    0.6020 c3        1 MOL      0.163968
    134 C44        -3.8700    0.1650   -0.8360 c         1 MOL      0.534193
    135 O18        -2.7870    0.6400   -0.9950 o         1 MOL     -0.588868
    136 C45        -5.4050    0.8640    1.1540 c3        1 MOL      0.049105
    137 H62        -3.0560    0.5990    1.9500 hn        1 MOL      0.173904
    138 H63        -4.9420   -1.0720    0.6710 h1        1 MOL      0.050018
    139 H64        -6.2010    1.1970    0.4970 hc        1 MOL     -0.004475
    140 H65        -5.6350    0.5020    2.1560 hc        1 MOL     -0.004475
    141 H66        -4.7790    1.7560    1.2480 hc        1 MOL     -0.004475
    142 N13        -4.6680   -0.0420   -1.8470 n         1 MOL     -0.506189
    143 C46        -6.0700   -0.4880   -1.8250 c3        1 MOL      0.199317
    144 C47        -7.0340    0.5220   -2.5090 c         1 MOL      0.592679
    145 O19        -6.6330    1.0990   -3.4870 o         1 MOL     -0.551403
    146 C48        -6.1730   -1.8640   -2.4670 c3        1 MOL     -0.288153
    147 H67        -4.3840    0.2750   -2.7630 hn        1 MOL      0.324440
    148 H68        -6.4160   -0.6050   -0.7990 h1        1 MOL     -0.000502
    149 H69        -7.1610   -2.3000   -2.3100 hc        1 MOL      0.085396
    150 H70        -6.1610   -1.6970   -3.5430 hc        1 MOL      0.085396
    151 H71        -5.4270   -2.6390   -2.2850 hc        1 MOL      0.085396
    152 N14        -8.2810    0.7820   -2.0240 n         1 MOL     -0.568063
    153 C49        -8.9200    0.1920   -0.9020 c3        1 MOL     -0.201818
    154 C50        -8.7670    1.0560    0.3490 c         1 MOL      0.556835
    155 O20        -8.5950    0.4940    1.4380 o         1 MOL     -0.529665
    156 C51       -10.4340    0.0350   -1.1990 c3        1 MOL     -0.044145
    157 C52       -10.7680   -0.7800   -2.4450 c3        1 MOL     -0.049564
    158 C53       -12.0990   -1.4710   -2.4360 c         1 MOL      0.629133
    159 O21       -12.1070   -2.7050   -2.7520 o         1 MOL     -0.658946
    160 O22       -13.1240   -0.7900   -2.3540 o         1 MOL     -0.658946
    161 H72        -8.7710    1.4940   -2.5540 hn        1 MOL      0.354877
    162 H73        -8.5200   -0.7990   -0.6940 h1        1 MOL      0.167082
    163 H74       -10.9480    0.9510   -1.4930 hc        1 MOL      0.050216
    164 H75       -11.0430   -0.2460   -0.3470 hc        1 MOL      0.050216
    165 H76       -10.0010   -1.5600   -2.4650 hc        1 MOL      0.014620
    166 H77       -10.6950   -0.2600   -3.4000 hc        1 MOL      0.014620
    167 N15        -8.7370    2.3900    0.1220 n         1 MOL     -0.322871
    168 C54        -8.5200    3.4000    1.1380 c3        1 MOL     -0.163067
    169 H78        -8.3340    4.3620    0.6600 h1        1 MOL      0.093546
    170 H79        -9.4030    3.4750    1.7720 h1        1 MOL      0.093546
    171 H80        -7.6570    3.1250    1.7460 h1        1 MOL      0.093546
    172 H81        -8.7980    2.6350   -0.8490 hn        1 MOL      0.265062
    173 Ca1         1.8610    0.5860   -0.6580 Ca        1 MOL      1.749134
    174 O23        -0.0740   -0.9940   -1.8100 oh        1 MOL     -0.877449
    175 H82        -0.1350   -1.3100   -2.7160 ho        1 MOL      0.425821
    176 H83        -0.9510   -1.1550   -1.4520 ho        1 MOL      0.425821
    177 O24         1.9440    1.7650   -3.1160 oh        1 MOL     -0.877449
    178 H84         1.4830    2.0700   -3.8950 ho        1 MOL      0.425821
    179 H85         2.7250    1.3260   -3.4420 ho        1 MOL      0.425821
    180 O25        -0.3310    1.9640   -0.9840 oh        1 MOL     -0.877449
    181 H86        -1.1380    1.5600   -0.6890 ho        1 MOL      0.425821
    182 H87        -0.5850    2.4870   -1.7460 ho        1 MOL      0.425821
@<TRIPOS>BOND
     1    1    2 1   
     2    1    4 1   
     3    1    5 1   
     4    1    6 1   
     5    2    3 2   
     6    2    7 1   
     7    7    8 1   
     8    7   15 1   
     9    8    9 1   
    10    8   11 1   
    11    8   16 1   
    12    9   10 2   
    13    9   19 1   
    14   11   12 1   
    15   11   17 1   
    16   11   18 1   
    17   12   13 1   
    18   12   14 1   
    19   19   20 1   
    20   19   28 1   
    21   20   21 1   
    22   20   23 1   
    23   20   29 1   
    24   21   22 2   
    25   21   41 1   
    26   23   24 1   
    27   23   30 1   
    28   23   31 1   
    29   24   25 1   
    30   24   32 1   
    31   24   33 1   
    32   25   26 1   
    33   25   34 1   
    34   25   35 1   
    35   26   27 1   
    36   26   36 1   
    37   26   37 1   
    38   27   38 1   
    39   27   39 1   
    40   27   40 1   
    41   41   42 1   
    42   41   49 1   
    43   42   43 1   
    44   42   45 1   
    45   42   50 1   
    46   43   44 2   
    47   43   53 1   
    48   45   46 1   
    49   45   51 1   
    50   45   52 1   
    51   46   47 1   
    52   46   48 1   
    53   53   54 1   
    54   53   57 1   
    55   54   55 1   
    56   54   58 1   
    57   54   59 1   
    58   55   56 2   
    59   55   60 1   
    60   60   61 1   
    61   60   68 1   
    62   61   62 1   
    63   61   64 1   
    64   61   69 1   
    65   62   63 2   
    66   62   74 1   
    67   64   65 1   
    68   64   70 1   
    69   64   71 1   
    70   65   66 1   
    71   65   67 2   
    72   66   72 1   
    73   66   73 1   
    74   74   75 1   
    75   74   78 1   
    76   75   76 1   
    77   75   79 1   
    78   75   80 1   
    79   76   77 2   
    80   76   81 1   
    81   81   82 1   
    82   81   93 1   
    83   82   83 1   
    84   82   85 1   
    85   82   94 1   
    86   83   84 2   
    87   83  102 1   
    88   85   86 1   
    89   85   95 1   
    90   85   96 1   
    91   86   87 ar  
    92   86   88 ar  
    93   87   89 ar  
    94   87   97 1   
    95   88   90 ar  
    96   88   98 1   
    97   89   91 ar  
    98   89   99 1   
    99   90   91 ar  
   100   90  100 1   
   101   91   92 1   
   102   92  101 1   
   103  102  103 1   
   104  102  110 1   
   105  103  104 1   
   106  103  106 1   
   107  103  111 1   
   108  104  105 2   
   109  104  121 1   
   110  106  107 1   
   111  106  108 1   
   112  106  112 1   
   113  107  109 1   
   114  107  113 1   
   115  107  114 1   
   116  108  115 1   
   117  108  116 1   
   118  108  117 1   
   119  109  118 1   
   120  109  119 1   
   121  109  120 1   
   122  121  122 1   
   123  121  127 1   
   124  122  123 1   
   125  122  125 1   
   126  122  128 1   
   127  123  124 2   
   128  123  132 1   
   129  125  126 1   
   130  125  129 1   
   131  125  130 1   
   132  126  131 1   
   133  132  133 1   
   134  132  137 1   
   135  133  134 1   
   136  133  136 1   
   137  133  138 1   
   138  134  135 2   
   139  134  142 1   
   140  136  139 1   
   141  136  140 1   
   142  136  141 1   
   143  142  143 1   
   144  142  147 1   
   145  143  144 1   
   146  143  146 1   
   147  143  148 1   
   148  144  145 2   
   149  144  152 1   
   150  146  149 1   
   151  146  150 1   
   152  146  151 1   
   153  152  153 1   
   154  152  161 1   
   155  153  154 1   
   156  153  156 1   
   157  153  162 1   
   158  154  155 2   
   159  154  167 1   
   160  156  157 1   
   161  156  163 1   
   162  156  164 1   
   163  157  158 1   
   164  157  165 1   
   165  157  166 1   
   166  158  159 1   
   167  158  160 1   
   168  167  168 1   
   169  167  172 1   
   170  168  169 1   
   171  168  170 1   
   172  168  171 1   
   173  174  175 1   
   174  174  176 1   
   175  177  178 1   
   176  177  179 1   
   177  180  181 1   
   178  180  182 1   
@<TRIPOS>SUBSTRUCTURE
     1 MOL         1 TEMP              0 ****  ****    0 ROOT
