@<TRIPOS>MOLECULE
MOL
  179   176     1     0     0
SMALL
resp


@<TRIPOS>ATOM
      1 C1         -6.0630    2.0480   -2.1710 c3        1 MOL     -0.371167
      2 C2         -7.1330    1.7250   -1.1350 c         1 MOL      0.722538
      3 O1         -6.7920    1.1960   -0.0140 o         1 MOL     -0.573836
      4 H1         -5.3980    2.8180   -1.7790 hc        1 MOL      0.087817
      5 H2         -5.4860    1.1490   -2.3920 hc        1 MOL      0.087817
      6 H3         -6.5380    2.4080   -3.0840 hc        1 MOL      0.087817
      7 N1         -8.4480    1.7910   -1.4870 n         1 MOL     -0.496822
      8 C3         -9.6710    1.5280   -0.7720 c3        1 MOL      0.011395
      9 C4         -9.7780    0.1960   -0.0950 c         1 MOL      0.558175
     10 O2        -10.7590   -0.1240    0.6060 o         1 MOL     -0.524834
     11 C5        -10.0290    2.6990    0.1320 c3        1 MOL     -0.078954
     12 C6        -10.0520    4.0090   -0.4720 c         1 MOL      0.714611
     13 O3         -9.9710    4.1320   -1.6950 o         1 MOL     -0.669620
     14 O4        -10.2320    4.9940    0.2700 o         1 MOL     -0.669620
     15 H4         -8.6490    2.1860   -2.3920 hn        1 MOL      0.287373
     16 H5        -10.4750    1.5880   -1.5080 h1        1 MOL      0.069880
     17 H6         -9.1790    2.6880    0.8200 hc        1 MOL      0.037387
     18 H7        -10.9010    2.4850    0.7440 hc        1 MOL      0.037387
     19 N2         -8.8380   -0.7830   -0.3950 n         1 MOL     -0.445503
     20 C7         -8.7460   -2.0040    0.4180 c3        1 MOL     -0.001437
     21 C8         -7.2740   -2.4030    0.7630 c         1 MOL      0.559180
     22 O5         -6.9830   -3.4220    1.2660 o         1 MOL     -0.563858
     23 C9         -9.5160   -3.0800   -0.4320 c3        1 MOL     -0.219567
     24 C10        -8.8350   -3.4280   -1.7240 c3        1 MOL      0.302539
     25 C11        -9.4660   -4.7690   -2.1700 c3        1 MOL     -0.053734
     26 C12        -9.1230   -5.1890   -3.5990 c3        1 MOL     -0.114651
     27 N3         -7.8510   -5.9730   -3.5790 n4        1 MOL     -0.216463
     28 H8         -8.1420   -0.6540   -1.1190 hn        1 MOL      0.178357
     29 H9         -9.2600   -1.8440    1.3670 h1        1 MOL      0.136671
     30 H10       -10.5640   -2.8290   -0.5940 hc        1 MOL      0.070843
     31 H11        -9.5780   -4.0180    0.1180 hc        1 MOL      0.070843
     32 H12        -7.7940   -3.6560   -1.5170 hc        1 MOL     -0.059261
     33 H13        -8.9290   -2.7500   -2.5590 hc        1 MOL     -0.059261
     34 H14       -10.5400   -4.5740   -2.1760 hc        1 MOL      0.039843
     35 H15        -9.2430   -5.5500   -1.4490 hc        1 MOL      0.039843
     36 H16        -9.1450   -4.3600   -4.3010 hx        1 MOL      0.119839
     37 H17        -9.8890   -5.9330   -3.7980 hx        1 MOL      0.119839
     38 H18        -7.1760   -5.2360   -3.4760 hn        1 MOL      0.254015
     39 H19        -7.8670   -6.6920   -2.8750 hn        1 MOL      0.254015
     40 H20        -7.6330   -6.3220   -4.5000 hn        1 MOL      0.254015
     41 N4         -6.3160   -1.4790    0.5350 n         1 MOL     -0.305425
     42 C13        -4.9150   -1.7080    0.7660 c3        1 MOL     -0.150706
     43 C14        -4.5600   -1.6350    2.2440 c         1 MOL      0.535639
     44 O6         -4.4470   -0.5600    2.8740 o         1 MOL     -0.510861
     45 C15        -4.0520   -0.7530   -0.1820 c3        1 MOL     -0.106699
     46 C16        -2.5040   -1.0320   -0.0720 c         1 MOL      0.703327
     47 O7         -1.7060   -0.3190   -0.6460 o         1 MOL     -0.790957
     48 O8         -2.0710   -1.9950    0.5900 o         1 MOL     -0.790957
     49 H21        -6.5320   -0.5410    0.2280 hn        1 MOL      0.245900
     50 H22        -4.8610   -2.7540    0.4660 h1        1 MOL      0.057669
     51 H23        -4.3310    0.2670    0.0810 hc        1 MOL      0.055581
     52 H24        -4.4260   -1.0030   -1.1790 hc        1 MOL      0.055581
     53 N5         -4.2780   -2.7930    2.8520 n         1 MOL     -0.222647
     54 C17        -3.8660   -3.0070    4.2320 c3        1 MOL     -0.266285
     55 C18        -2.5070   -2.3290    4.6120 c         1 MOL      0.468859
     56 O9         -2.2460   -2.0220    5.7560 o         1 MOL     -0.528161
     57 H25        -4.4900   -3.6060    2.2870 hn        1 MOL      0.240658
     58 H26        -3.8260   -4.0860    4.3950 h1        1 MOL      0.138587
     59 H27        -4.6320   -2.5430    4.8440 h1        1 MOL      0.138587
     60 N6         -1.6130   -1.9760    3.6360 n         1 MOL     -0.140327
     61 C19        -0.4820   -1.0990    3.8390 c3        1 MOL      0.079148
     62 C20        -0.5850   -0.0230    2.7220 c         1 MOL      0.687130
     63 O10        -0.0970   -0.1310    1.6380 o         1 MOL     -0.648888
     64 C21         0.8380   -1.8060    4.0130 c3        1 MOL     -0.456703
     65 C22         1.0100   -2.8930    3.0200 c         1 MOL      0.681532
     66 N7          2.2070   -3.4850    3.0380 n         1 MOL     -0.751692
     67 O11         0.2910   -3.1600    2.1130 o         1 MOL     -0.565485
     68 H28        -1.9020   -2.2780    2.7120 hn        1 MOL      0.169296
     69 H29        -0.6270   -0.5490    4.7690 h1        1 MOL      0.041256
     70 H30         0.8040   -2.3770    4.9320 hc        1 MOL      0.155921
     71 H31         1.6250   -1.0880    3.7990 hc        1 MOL      0.155921
     72 H32         2.9960   -3.2040    3.6020 hn        1 MOL      0.344695
     73 H33         2.3630   -4.1940    2.3410 hn        1 MOL      0.344695
     74 N8         -1.3790    1.0200    3.0740 n         1 MOL     -0.547142
     75 C23        -1.8830    2.0270    2.1240 c3        1 MOL     -0.113121
     76 C24        -0.8290    2.8590    1.5810 c         1 MOL      0.452997
     77 O12        -0.3620    3.8170    2.2030 o         1 MOL     -0.518284
     78 H34        -1.8300    1.0150    3.9790 hn        1 MOL      0.349771
     79 H35        -2.5430    2.6340    2.7390 h1        1 MOL      0.129465
     80 H36        -2.4270    1.5340    1.3110 h1        1 MOL      0.129465
     81 N9         -0.3600    2.3320    0.4540 n         1 MOL     -0.279867
     82 C25         0.6700    2.9350   -0.5000 c3        1 MOL      0.498178
     83 C26         1.7890    1.8850   -0.7220 c         1 MOL      0.360990
     84 O13         1.5250    0.7150   -0.5730 o         1 MOL     -0.474528
     85 C27         0.1960    3.6220   -1.7970 c3        1 MOL     -0.334249
     86 C28        -0.8340    4.6740   -1.5800 ca        1 MOL      0.043108
     87 C29        -0.6350    5.5880   -0.5630 ca        1 MOL     -0.115527
     88 C30        -1.9180    4.7280   -2.3510 ca        1 MOL     -0.115527
     89 C31        -1.6170    6.6110   -0.2860 ca        1 MOL     -0.325192
     90 C32        -2.8200    5.8150   -2.2270 ca        1 MOL     -0.325192
     91 C33        -2.6510    6.7760   -1.1830 ca        1 MOL      0.411717
     92 O14        -3.4850    7.8270   -1.1450 oh        1 MOL     -0.469979
     93 H37        -0.8490    1.5090    0.1310 hn        1 MOL      0.246609
     94 H38         1.1520    3.6550    0.1560 h1        1 MOL     -0.062554
     95 H39        -0.2640    2.8320   -2.3890 hc        1 MOL      0.075922
     96 H40         1.0440    4.1370   -2.2600 hc        1 MOL      0.075922
     97 H41         0.2100    5.5690    0.1100 ha        1 MOL      0.127623
     98 H42        -2.0230    4.0130   -3.1510 ha        1 MOL      0.127623
     99 H43        -1.5640    7.3120    0.5340 ha        1 MOL      0.170745
    100 H44        -3.6650    5.9830   -2.8760 ha        1 MOL      0.170745
    101 H45        -4.1780    7.6910   -1.7880 ho        1 MOL      0.348862
    102 N10         2.9540    2.3860   -1.2150 n         1 MOL     -0.509849
    103 C34         4.2490    1.6650   -1.3410 c3        1 MOL      0.010290
    104 C35         5.1730    1.8960   -0.1300 c         1 MOL      0.669873
    105 O15         5.7660    0.9350    0.3370 o         1 MOL     -0.461184
    106 C36         4.9360    1.8350   -2.7020 c3        1 MOL      0.120609
    107 C37         3.9230    1.5780   -3.8120 c3        1 MOL      0.291987
    108 C38         6.1080    0.8170   -2.9400 c3        1 MOL     -0.373699
    109 C39         4.4780    1.6840   -5.2290 c3        1 MOL     -0.307888
    110 H46         2.8150    3.3580   -1.4170 hn        1 MOL      0.259036
    111 H47         4.0020    0.6230   -1.1640 h1        1 MOL      0.108703
    112 H48         5.3870    2.7960   -2.9350 hc        1 MOL     -0.020774
    113 H49         3.1470    2.3240   -3.6990 hc        1 MOL     -0.063415
    114 H50         3.4700    0.6030   -3.6260 hc        1 MOL     -0.063415
    115 H51         6.6110    1.1560   -3.8460 hc        1 MOL      0.090882
    116 H52         6.8460    0.8580   -2.1380 hc        1 MOL      0.090882
    117 H53         5.7020   -0.1830   -3.1010 hc        1 MOL      0.090882
    118 H54         4.8330    0.7060   -5.5630 hc        1 MOL      0.068341
    119 H55         3.6780    1.9690   -5.9170 hc        1 MOL      0.068341
    120 H56         5.2220    2.4710   -5.3070 hc        1 MOL      0.068341
    121 N11         5.3430    3.1550    0.3670 n         1 MOL     -0.607748
    122 C40         6.1840    3.3800    1.5410 c3        1 MOL      0.215435
    123 C41         7.6530    2.9030    1.5520 c         1 MOL      0.197526
    124 O16         8.1610    2.3370    2.5300 o         1 MOL     -0.451298
    125 C42         6.0850    4.9030    1.9630 c3        1 MOL      0.281334
    126 O17         4.8180    5.5850    1.6870 oh        1 MOL     -0.610795
    127 H57         4.7800    3.8910   -0.0240 hn        1 MOL      0.267547
    128 H58         5.8350    2.8250    2.4130 h1        1 MOL      0.021772
    129 H59         6.9100    5.4100    1.4780 h1        1 MOL      0.015637
    130 H60         6.2840    4.9070    3.0320 h1        1 MOL      0.015637
    131 H61         4.0450    5.0890    1.9760 ho        1 MOL      0.395831
    132 N12         8.2670    2.9820    0.3760 n         1 MOL     -0.210429
    133 C43         9.5650    2.4070    0.0330 c3        1 MOL      0.166138
    134 C44         9.7100    0.8510    0.3410 c         1 MOL      0.465342
    135 O18        10.8520    0.4210    0.6140 o         1 MOL     -0.498679
    136 C45        10.6410    3.3120    0.7010 c3        1 MOL     -0.398100
    137 H62         7.7000    3.4330   -0.3270 hn        1 MOL      0.182363
    138 H63         9.7500    2.4860   -1.0320 h1        1 MOL      0.052683
    139 H64        10.6480    3.3320    1.7880 hc        1 MOL      0.118275
    140 H65        11.6130    2.9470    0.3600 hc        1 MOL      0.118275
    141 H66        10.4820    4.3220    0.3210 hc        1 MOL      0.118275
    142 N13         8.5780    0.0790    0.3090 n         1 MOL     -0.554173
    143 C46         8.5120   -1.3260    0.8030 c3        1 MOL      0.346296
    144 C47         7.9600   -2.3110   -0.2900 c         1 MOL      0.337857
    145 O19         7.8350   -2.0150   -1.4650 o         1 MOL     -0.475583
    146 C48         7.7210   -1.2070    2.0660 c3        1 MOL     -0.101232
    147 H67         7.6680    0.4980    0.1790 hn        1 MOL      0.330858
    148 H68         9.5080   -1.5980    1.1600 h1        1 MOL      0.005948
    149 H69         8.0830   -0.5140    2.8200 hc        1 MOL      0.034219
    150 H70         6.7280   -0.9240    1.7020 hc        1 MOL      0.034219
    151 H71         7.6670   -2.1520    2.5960 hc        1 MOL      0.034219
    152 N14         7.5370   -3.5080    0.1500 n         1 MOL     -0.445278
    153 C49         6.8440   -4.5950   -0.6250 c3        1 MOL     -0.032671
    154 C50         7.4710   -5.2100   -1.8290 c         1 MOL      0.538254
    155 O20         7.7130   -6.4200   -1.8520 o         1 MOL     -0.527652
    156 C51         5.4710   -3.9730   -0.9680 c3        1 MOL     -0.005912
    157 C52         4.5440   -3.4390    0.1590 c3        1 MOL      0.067092
    158 C53         3.1660   -2.8430   -0.2780 c         1 MOL      0.675536
    159 O21         3.0430   -1.6040   -0.3750 o         1 MOL     -0.743503
    160 O22         2.2340   -3.6150   -0.4990 o         1 MOL     -0.743503
    161 H72         7.6980   -3.6420    1.1350 hn        1 MOL      0.289728
    162 H73         6.6800   -5.4320    0.0510 h1        1 MOL      0.086045
    163 H74         4.8960   -4.7210   -1.5140 hc        1 MOL      0.021406
    164 H75         5.6030   -3.1360   -1.6460 hc        1 MOL      0.021406
    165 H76         4.9920   -2.5700    0.6370 hc        1 MOL     -0.058352
    166 H77         4.4620   -4.1640    0.9660 hc        1 MOL     -0.058352
    167 N15         7.7010   -4.3790   -2.9180 n         1 MOL     -0.293162
    168 C54         8.0340   -4.8180   -4.2220 c3        1 MOL     -0.237958
    169 H78         7.5110   -5.7510   -4.4340 h1        1 MOL      0.100245
    170 H79         7.7360   -4.0620   -4.9480 h1        1 MOL      0.100245
    171 H80         9.1100   -4.9830   -4.2870 h1        1 MOL      0.100245
    172 H81         7.6930   -3.3780   -2.7820 hn        1 MOL      0.287658
    173 Ca1         0.4060   -1.7830   -0.3160 Ca        1 MOL      1.765650
    174 O23        -0.6870   -3.9440   -1.5580 oh        1 MOL     -0.782458
    175 H82        -0.7710   -4.8360   -1.2310 ho        1 MOL      0.396483
    176 H83        -1.4010   -3.8580   -2.1970 ho        1 MOL      0.396483
    177 O24         0.8220   -1.2790   -3.0410 oh        1 MOL     -0.782458
    178 H84         1.1050   -1.6740   -3.8640 ho        1 MOL      0.396483
    179 H85         0.5080   -0.4040   -3.2790 ho        1 MOL      0.396483
@<TRIPOS>BOND
     1    1    2 1   
     2    1    4 1   
     3    1    5 1   
     4    1    6 1   
     5    2    3 2   
     6    2    7 1   
     7    7    8 1   
     8    7   15 1   
     9    8    9 1   
    10    8   11 1   
    11    8   16 1   
    12    9   10 2   
    13    9   19 1   
    14   11   12 1   
    15   11   17 1   
    16   11   18 1   
    17   12   13 1   
    18   12   14 1   
    19   19   20 1   
    20   19   28 1   
    21   20   21 1   
    22   20   23 1   
    23   20   29 1   
    24   21   22 2   
    25   21   41 1   
    26   23   24 1   
    27   23   30 1   
    28   23   31 1   
    29   24   25 1   
    30   24   32 1   
    31   24   33 1   
    32   25   26 1   
    33   25   34 1   
    34   25   35 1   
    35   26   27 1   
    36   26   36 1   
    37   26   37 1   
    38   27   38 1   
    39   27   39 1   
    40   27   40 1   
    41   41   42 1   
    42   41   49 1   
    43   42   43 1   
    44   42   45 1   
    45   42   50 1   
    46   43   44 2   
    47   43   53 1   
    48   45   46 1   
    49   45   51 1   
    50   45   52 1   
    51   46   47 1   
    52   46   48 1   
    53   53   54 1   
    54   53   57 1   
    55   54   55 1   
    56   54   58 1   
    57   54   59 1   
    58   55   56 2   
    59   55   60 1   
    60   60   61 1   
    61   60   68 1   
    62   61   62 1   
    63   61   64 1   
    64   61   69 1   
    65   62   63 2   
    66   62   74 1   
    67   64   65 1   
    68   64   70 1   
    69   64   71 1   
    70   65   66 1   
    71   65   67 2   
    72   66   72 1   
    73   66   73 1   
    74   74   75 1   
    75   74   78 1   
    76   75   76 1   
    77   75   79 1   
    78   75   80 1   
    79   76   77 2   
    80   76   81 1   
    81   81   82 1   
    82   81   93 1   
    83   82   83 1   
    84   82   85 1   
    85   82   94 1   
    86   83   84 2   
    87   83  102 1   
    88   85   86 1   
    89   85   95 1   
    90   85   96 1   
    91   86   87 ar  
    92   86   88 ar  
    93   87   89 ar  
    94   87   97 1   
    95   88   90 ar  
    96   88   98 1   
    97   89   91 ar  
    98   89   99 1   
    99   90   91 ar  
   100   90  100 1   
   101   91   92 1   
   102   92  101 1   
   103  102  103 1   
   104  102  110 1   
   105  103  104 1   
   106  103  106 1   
   107  103  111 1   
   108  104  105 2   
   109  104  121 1   
   110  106  107 1   
   111  106  108 1   
   112  106  112 1   
   113  107  109 1   
   114  107  113 1   
   115  107  114 1   
   116  108  115 1   
   117  108  116 1   
   118  108  117 1   
   119  109  118 1   
   120  109  119 1   
   121  109  120 1   
   122  121  122 1   
   123  121  127 1   
   124  122  123 1   
   125  122  125 1   
   126  122  128 1   
   127  123  124 2   
   128  123  132 1   
   129  125  126 1   
   130  125  129 1   
   131  125  130 1   
   132  126  131 1   
   133  132  133 1   
   134  132  137 1   
   135  133  134 1   
   136  133  136 1   
   137  133  138 1   
   138  134  135 2   
   139  134  142 1   
   140  136  139 1   
   141  136  140 1   
   142  136  141 1   
   143  142  143 1   
   144  142  147 1   
   145  143  144 1   
   146  143  146 1   
   147  143  148 1   
   148  144  145 2   
   149  144  152 1   
   150  146  149 1   
   151  146  150 1   
   152  146  151 1   
   153  152  153 1   
   154  152  161 1   
   155  153  154 1   
   156  153  156 1   
   157  153  162 1   
   158  154  155 2   
   159  154  167 1   
   160  156  157 1   
   161  156  163 1   
   162  156  164 1   
   163  157  158 1   
   164  157  165 1   
   165  157  166 1   
   166  158  159 1   
   167  158  160 1   
   168  167  168 1   
   169  167  172 1   
   170  168  169 1   
   171  168  170 1   
   172  168  171 1   
   173  174  175 1   
   174  174  176 1   
   175  177  178 1   
   176  177  179 1   
@<TRIPOS>SUBSTRUCTURE
     1 MOL         1 TEMP              0 ****  ****    0 ROOT
