@<TRIPOS>MOLECULE
MOL
  192   187     1     0     0
SMALL
resp


@<TRIPOS>ATOM
      1 C1          9.8360    0.7840    1.2760 c3        1 MOL     -0.485802
      2 C2          8.5820    0.5070    0.5310 c         1 MOL      0.761498
      3 O1          7.4720    0.4570    1.1520 o         1 MOL     -0.697467
      4 H1          9.6400    0.7370    2.3470 hc        1 MOL      0.123352
      5 H2         10.5880    0.0420    1.0110 hc        1 MOL      0.123352
      6 H3         10.2000    1.7790    1.0180 hc        1 MOL      0.123352
      7 N1          8.6820    0.3360   -0.7640 n         1 MOL     -0.506174
      8 C3          7.6690   -0.1200   -1.6500 c3        1 MOL     -0.079080
      9 C4          7.0900   -1.5040   -1.2780 c         1 MOL      0.362203
     10 O2          6.8110   -2.2720   -2.1950 o         1 MOL     -0.416239
     11 C5          8.0850    0.0060   -3.0800 c3        1 MOL     -0.133859
     12 C6          9.2750   -0.8110   -3.4830 c         1 MOL      0.660383
     13 O3          9.7420   -0.6420   -4.6230 o         1 MOL     -0.629726
     14 O4          9.8090   -1.7090   -2.7150 o         1 MOL     -0.629726
     15 H4          9.6170    0.3830   -1.1410 hn        1 MOL      0.290924
     16 H5          6.8310    0.5290   -1.4380 h1        1 MOL      0.162025
     17 H6          8.1580    1.0380   -3.4230 hc        1 MOL      0.081458
     18 H7          7.2540   -0.2510   -3.7390 hc        1 MOL      0.081458
     19 N2          6.9140   -1.9830   -0.0180 n         1 MOL     -0.255536
     20 C7          6.4200   -3.3720    0.2890 c3        1 MOL      0.012193
     21 C8          4.9490   -3.6570   -0.0900 c         1 MOL      0.471198
     22 O5          4.5880   -4.7880   -0.5240 o         1 MOL     -0.545178
     23 C9          6.6830   -3.8590    1.7430 c3        1 MOL     -0.002215
     24 C10         8.1720   -3.7150    2.1150 c3        1 MOL     -0.097970
     25 C11         8.5300   -3.7760    3.5890 c3        1 MOL     -0.101828
     26 C12        10.0560   -3.6410    3.7370 c3        1 MOL      0.175061
     27 N3         10.4370   -3.8040    5.1690 n4        1 MOL     -0.247965
     28 H8          6.9930   -1.2770    0.7060 hn        1 MOL      0.229691
     29 H9          6.9260   -4.1500   -0.2890 h1        1 MOL      0.091004
     30 H10         6.3320   -4.8760    1.8790 hc        1 MOL      0.033939
     31 H11         6.0150   -3.3430    2.4490 hc        1 MOL      0.033939
     32 H12         8.6440   -2.8520    1.6460 hc        1 MOL      0.058295
     33 H13         8.5830   -4.5870    1.6050 hc        1 MOL      0.058295
     34 H14         8.2390   -4.7630    3.9260 hc        1 MOL      0.038292
     35 H15         8.0120   -2.9680    4.1080 hc        1 MOL      0.038292
     36 H16        10.3480   -2.6750    3.3450 hx        1 MOL      0.040116
     37 H17        10.5280   -4.4280    3.1500 hx        1 MOL      0.040116
     38 H18        10.1980   -2.9680    5.6870 hn        1 MOL      0.242547
     39 H19         9.8560   -4.5250    5.5650 hn        1 MOL      0.242547
     40 H20        11.4160   -4.0250    5.3010 hn        1 MOL      0.242547
     41 N4          3.9550   -2.7650    0.1130 n         1 MOL     -0.434750
     42 C13         3.9460   -1.4650    0.9180 c3        1 MOL      0.176461
     43 C14         4.0830   -0.1900    0.0760 c         1 MOL      0.027314
     44 O6          4.0780   -0.2530   -1.1700 o         1 MOL     -0.374555
     45 C15         2.7180   -1.4730    1.8500 c3        1 MOL     -0.201206
     46 C16         1.3910   -1.8150    1.1650 c         1 MOL      0.563310
     47 O7          1.0580   -0.9280    0.2650 o         1 MOL     -0.626397
     48 O8          0.5920   -2.7580    1.5590 o         1 MOL     -0.626397
     49 H21         3.0820   -2.9900   -0.3460 hn        1 MOL      0.372172
     50 H22         4.7930   -1.4310    1.6050 h1        1 MOL      0.080896
     51 H23         2.5200   -0.4540    2.1950 hc        1 MOL      0.024861
     52 H24         2.9740   -2.1430    2.6690 hc        1 MOL      0.024861
     53 N5          4.2020    0.9410    0.7470 n         1 MOL     -0.133138
     54 C17         4.3270    2.1730   -0.0540 c3        1 MOL      0.009734
     55 C18         3.0260    2.7550   -0.6630 c         1 MOL      0.448376
     56 O9          1.9090    2.2040   -0.5740 o         1 MOL     -0.390365
     57 H25         4.1640    0.9220    1.7520 hn        1 MOL      0.262681
     58 H26         5.1310    1.9950   -0.7710 h1        1 MOL      0.044384
     59 H27         4.5990    2.9190    0.6940 h1        1 MOL      0.044384
     60 N6          3.1130    3.9420   -1.2350 n         1 MOL     -0.366783
     61 C19         1.9930    4.5960   -2.0030 c3        1 MOL      0.157444
     62 C20         2.3820    6.0910   -2.0300 c         1 MOL      0.409689
     63 O10         3.5540    6.4280   -1.9230 o         1 MOL     -0.539061
     64 C21         1.9420    4.0700   -3.4340 c3        1 MOL     -0.077638
     65 C22         1.6180    2.5750   -3.5220 c         1 MOL      0.553928
     66 O11         2.3230    1.9020   -4.2370 o         1 MOL     -0.640403
     67 O12         0.6070    2.1340   -2.8710 o         1 MOL     -0.640403
     68 H28         4.0190    4.3470   -1.4330 hn        1 MOL      0.259153
     69 H29         1.0070    4.4260   -1.5570 h1        1 MOL     -0.005181
     70 H30         2.8390    4.3410   -3.9830 hc        1 MOL      0.030931
     71 H31         1.1960    4.6070   -4.0220 hc        1 MOL      0.030931
     72 N7          1.5130    7.0800   -2.0310 n         1 MOL     -0.350083
     73 C23         0.0320    7.0040   -2.0870 c3        1 MOL     -0.110890
     74 C24        -0.4850    6.3150   -0.7980 c         1 MOL      0.587220
     75 O13         0.1680    6.3930    0.2430 o         1 MOL     -0.501596
     76 H32         1.8980    7.9940   -1.8630 hn        1 MOL      0.305086
     77 H33        -0.3200    6.4970   -2.9820 h1        1 MOL      0.074779
     78 H34        -0.3300    8.0350   -2.1510 h1        1 MOL      0.074779
     79 N8         -1.6470    5.7450   -0.8430 n         1 MOL     -0.529106
     80 C25        -2.3670    5.0900    0.2500 c3        1 MOL      0.135942
     81 C26        -1.6980    3.7950    0.7020 c         1 MOL      0.893021
     82 O14        -1.1370    3.0140   -0.0490 o         1 MOL     -0.672497
     83 C27        -3.8810    4.9550    0.0090 c3        1 MOL      0.143556
     84 C28        -4.7220    4.1090    0.9270 c3        1 MOL     -0.346324
     85 O15        -4.0020    4.4060   -1.2460 oh        1 MOL     -0.611388
     86 H35        -2.0280    5.7260   -1.7850 hn        1 MOL      0.304535
     87 H36        -2.3190    5.7750    1.0850 h1        1 MOL      0.021618
     88 H37        -4.3330    5.9410   -0.0630 h1        1 MOL      0.056622
     89 H38        -4.8730    4.6250   -1.5880 ho        1 MOL      0.425248
     90 H39        -4.3370    3.0890    0.9140 hc        1 MOL      0.122741
     91 H40        -4.6990    4.4170    1.9760 hc        1 MOL      0.122741
     92 H41        -5.7560    4.1240    0.5740 hc        1 MOL      0.122741
     93 N9         -1.7610    3.5600    2.0180 n         1 MOL     -1.022690
     94 C29        -1.1860    2.4180    2.7380 c3        1 MOL      0.504899
     95 C30        -1.8260    1.0880    2.3710 c         1 MOL      0.613523
     96 O16        -1.6960    0.6250    1.2050 o         1 MOL     -0.590044
     97 C31         0.3170    2.5260    2.6630 c3        1 MOL      0.108825
     98 C32         0.8600    3.9360    3.1820 c3        1 MOL      0.088760
     99 C33         0.8780    1.4390    3.6250 c3        1 MOL     -0.437215
    100 C34         2.3450    4.1290    3.5140 c3        1 MOL     -0.168349
    101 H42        -2.2880    4.2040    2.5980 hn        1 MOL      0.380950
    102 H43        -1.5700    2.5310    3.7540 h1        1 MOL     -0.065035
    103 H44         0.6110    2.2050    1.6630 hc        1 MOL     -0.060179
    104 H45         0.2040    4.1650    4.0180 hc        1 MOL     -0.007861
    105 H46         0.7190    4.7570    2.4650 hc        1 MOL     -0.007861
    106 H47         0.5180    1.4070    4.6550 hc        1 MOL      0.098779
    107 H48         0.7460    0.4300    3.2300 hc        1 MOL      0.098779
    108 H49         1.9530    1.5970    3.5870 hc        1 MOL      0.098779
    109 H50         2.4860    3.5350    4.4200 hc        1 MOL      0.040674
    110 H51         3.0560    3.7590    2.7730 hc        1 MOL      0.040674
    111 H52         2.5010    5.1980    3.5820 hc        1 MOL      0.040674
    112 N10        -2.2900    0.4090    3.4750 n         1 MOL     -0.430148
    113 C35        -2.8010   -0.9390    3.3860 c3        1 MOL     -0.323018
    114 C36        -4.0930   -0.9630    2.5910 c         1 MOL      0.607012
    115 O17        -4.4960   -2.0390    2.2470 o         1 MOL     -0.537482
    116 C37        -3.0480   -1.6620    4.7560 c3        1 MOL      0.520072
    117 C38        -4.2670   -1.1360    5.5190 c3        1 MOL     -0.251434
    118 O18        -1.9760   -1.4190    5.6290 oh        1 MOL     -0.611381
    119 H53        -2.0840    0.7710    4.4050 hn        1 MOL      0.266261
    120 H54        -2.0030   -1.4880    2.8760 h1        1 MOL      0.145495
    121 H55        -3.1220   -2.7350    4.5570 h1        1 MOL     -0.007358
    122 H56        -1.1720   -1.7380    5.1940 ho        1 MOL      0.387465
    123 H57        -5.1580   -1.3490    4.9260 hc        1 MOL      0.060908
    124 H58        -4.3290   -1.6700    6.4730 hc        1 MOL      0.060908
    125 H59        -4.2130   -0.0560    5.6540 hc        1 MOL      0.060908
    126 N11        -4.9040    0.1470    2.5420 n         1 MOL     -0.283952
    127 C39        -6.2860    0.0820    1.9840 c3        1 MOL     -0.303984
    128 C40        -6.2020   -0.5870    0.5610 c         1 MOL      0.678636
    129 O19        -5.5820   -0.0090   -0.3390 o         1 MOL     -0.532945
    130 C41        -6.7760    1.5650    1.9660 c3        1 MOL      0.426227
    131 C42        -8.2840    1.5220    1.7000 c3        1 MOL     -0.233747
    132 O20        -6.5780    2.2460    3.1540 oh        1 MOL     -0.567895
    133 H60        -4.5530    1.0480    2.8370 hn        1 MOL      0.170062
    134 H61        -6.9300   -0.5170    2.6340 h1        1 MOL      0.104512
    135 H62        -6.1450    2.1350    1.2880 h1        1 MOL     -0.062325
    136 H63        -6.8420    1.6220    3.8370 ho        1 MOL      0.370388
    137 H64        -8.7700    2.4400    2.0320 hc        1 MOL      0.056660
    138 H65        -8.5290    1.4610    0.6350 hc        1 MOL      0.056660
    139 H66        -8.8440    0.8340    2.3330 hc        1 MOL      0.056660
    140 N12        -6.9650   -1.6760    0.4000 n         1 MOL     -0.354724
    141 C43        -7.1520   -2.4310   -0.8750 c3        1 MOL      0.193352
    142 C44        -5.8420   -2.6210   -1.6510 c         1 MOL      0.485371
    143 O21        -5.6780   -2.0330   -2.7300 o         1 MOL     -0.520620
    144 C45        -8.3740   -1.8940   -1.6230 c3        1 MOL     -0.499470
    145 C46        -9.5870   -1.9270   -0.7040 c3        1 MOL      0.064088
    146 C47       -10.8720   -1.4090   -1.2830 c3        1 MOL     -0.094330
    147 C48       -12.0940   -1.4950   -0.3230 c3        1 MOL      0.096564
    148 N13       -13.3410   -1.1840   -1.0880 n4        1 MOL     -0.101469
    149 H67        -7.3340   -2.1350    1.2230 hn        1 MOL      0.209588
    150 H68        -7.4790   -3.4480   -0.6520 h1        1 MOL      0.026785
    151 H69        -8.6020   -2.5680   -2.4570 hc        1 MOL      0.174368
    152 H70        -8.1880   -0.8760   -1.9470 hc        1 MOL      0.174368
    153 H71        -9.3780   -1.2960    0.1650 hc        1 MOL      0.017341
    154 H72        -9.7630   -2.9820   -0.4950 hc        1 MOL      0.017341
    155 H73       -11.0260   -2.0190   -2.1760 hc        1 MOL      0.060745
    156 H74       -10.7420   -0.3460   -1.4900 hc        1 MOL      0.060745
    157 H75       -12.0280   -0.8540    0.5530 hx        1 MOL      0.032901
    158 H76       -12.2720   -2.4980    0.0470 hx        1 MOL      0.032901
    159 H77       -13.1610   -0.4230   -1.7290 hn        1 MOL      0.162105
    160 H78       -13.6450   -1.9970   -1.5960 hn        1 MOL      0.162105
    161 H79       -14.1320   -1.0560   -0.4740 hn        1 MOL      0.162105
    162 N14        -4.9120   -3.3100   -0.9910 n         1 MOL     -0.439184
    163 C49        -3.5110   -3.3240   -1.5080 c3        1 MOL      0.240862
    164 C50        -2.3530   -2.8990   -0.5770 c         1 MOL      0.249763
    165 O22        -1.7750   -1.8270   -0.8160 o         1 MOL     -0.518523
    166 C51        -3.2570   -4.7280   -2.2330 c3        1 MOL     -0.135923
    167 C52        -4.1710   -5.0010   -3.4140 c3        1 MOL     -0.225644
    168 C53        -3.9380   -6.3330   -4.0020 c         1 MOL      0.694926
    169 O23        -3.0290   -6.4010   -4.9060 o         1 MOL     -0.623265
    170 O24        -4.6390   -7.3530   -3.7740 o         1 MOL     -0.623265
    171 H80        -5.1190   -3.6580   -0.0660 hn        1 MOL      0.260987
    172 H81        -3.3960   -2.6120   -2.3180 h1        1 MOL      0.114245
    173 H82        -3.3880   -5.5680   -1.5490 hc        1 MOL      0.069211
    174 H83        -2.2310   -4.8260   -2.6020 hc        1 MOL      0.069211
    175 H84        -4.0490   -4.2860   -4.2310 hc        1 MOL      0.053983
    176 H85        -5.1870   -4.8590   -3.0430 hc        1 MOL      0.053983
    177 N15        -1.9210   -3.5620    0.4610 n         1 MOL     -0.119658
    178 C54        -2.0980   -4.9460    0.9940 c3        1 MOL     -0.158721
    179 H86        -1.2230   -5.5450    0.7440 h1        1 MOL      0.070145
    180 H87        -2.2150   -4.9070    2.0760 h1        1 MOL      0.070145
    181 H88        -2.9860   -5.3960    0.5480 h1        1 MOL      0.070145
    182 H89        -1.1150   -3.0730    0.8270 hn        1 MOL      0.263297
    183 Ca1        -0.4160    0.4690   -1.2360 Ca        1 MOL      1.744784
    184 O25        -2.9290    1.5310   -1.4810 oh        1 MOL     -0.900144
    185 H90        -3.2000    2.4460   -1.4160 ho        1 MOL      0.432372
    186 H91        -3.7100    1.0310   -1.2150 ho        1 MOL      0.432372
    187 O26         1.5720   -0.9210   -2.4060 oh        1 MOL     -0.900144
    188 H92         2.3410   -0.4900   -2.0150 ho        1 MOL      0.432372
    189 H93         1.7980   -1.0120   -3.3320 ho        1 MOL      0.432372
    190 O27        -1.0050   -0.2240   -3.7400 oh        1 MOL     -0.900144
    191 H94        -0.3520    0.1890   -4.2900 ho        1 MOL      0.432372
    192 H95        -1.5720   -0.7030   -4.3410 ho        1 MOL      0.432372
@<TRIPOS>BOND
     1    1    2 1   
     2    1    4 1   
     3    1    5 1   
     4    1    6 1   
     5    2    3 2   
     6    2    7 1   
     7    7    8 1   
     8    7   15 1   
     9    8    9 1   
    10    8   11 1   
    11    8   16 1   
    12    9   10 2   
    13    9   19 1   
    14   11   12 1   
    15   11   17 1   
    16   11   18 1   
    17   12   13 1   
    18   12   14 1   
    19   19   20 1   
    20   19   28 1   
    21   20   21 1   
    22   20   23 1   
    23   20   29 1   
    24   21   22 2   
    25   21   41 1   
    26   23   24 1   
    27   23   30 1   
    28   23   31 1   
    29   24   25 1   
    30   24   32 1   
    31   24   33 1   
    32   25   26 1   
    33   25   34 1   
    34   25   35 1   
    35   26   27 1   
    36   26   36 1   
    37   26   37 1   
    38   27   38 1   
    39   27   39 1   
    40   27   40 1   
    41   41   42 1   
    42   41   49 1   
    43   42   43 1   
    44   42   45 1   
    45   42   50 1   
    46   43   44 2   
    47   43   53 1   
    48   45   46 1   
    49   45   51 1   
    50   45   52 1   
    51   46   47 1   
    52   46   48 1   
    53   53   54 1   
    54   53   57 1   
    55   54   55 1   
    56   54   58 1   
    57   54   59 1   
    58   55   56 2   
    59   55   60 1   
    60   60   61 1   
    61   60   68 1   
    62   61   62 1   
    63   61   64 1   
    64   61   69 1   
    65   62   63 2   
    66   62   72 1   
    67   64   65 1   
    68   64   70 1   
    69   64   71 1   
    70   65   66 1   
    71   65   67 1   
    72   72   73 1   
    73   72   76 1   
    74   73   74 1   
    75   73   77 1   
    76   73   78 1   
    77   74   75 2   
    78   74   79 1   
    79   79   80 1   
    80   79   86 1   
    81   80   81 1   
    82   80   83 1   
    83   80   87 1   
    84   81   82 2   
    85   81   93 1   
    86   83   84 1   
    87   83   85 1   
    88   83   88 1   
    89   84   90 1   
    90   84   91 1   
    91   84   92 1   
    92   85   89 1   
    93   93   94 1   
    94   93  101 1   
    95   94   95 1   
    96   94   97 1   
    97   94  102 1   
    98   95   96 2   
    99   95  112 1   
   100   97   98 1   
   101   97   99 1   
   102   97  103 1   
   103   98  100 1   
   104   98  104 1   
   105   98  105 1   
   106   99  106 1   
   107   99  107 1   
   108   99  108 1   
   109  100  109 1   
   110  100  110 1   
   111  100  111 1   
   112  112  113 1   
   113  112  119 1   
   114  113  114 1   
   115  113  116 1   
   116  113  120 1   
   117  114  115 2   
   118  114  126 1   
   119  116  117 1   
   120  116  118 1   
   121  116  121 1   
   122  117  123 1   
   123  117  124 1   
   124  117  125 1   
   125  118  122 1   
   126  126  127 1   
   127  126  133 1   
   128  127  128 1   
   129  127  130 1   
   130  127  134 1   
   131  128  129 2   
   132  128  140 1   
   133  130  131 1   
   134  130  132 1   
   135  130  135 1   
   136  131  137 1   
   137  131  138 1   
   138  131  139 1   
   139  132  136 1   
   140  140  141 1   
   141  140  149 1   
   142  141  142 1   
   143  141  144 1   
   144  141  150 1   
   145  142  143 2   
   146  142  162 1   
   147  144  145 1   
   148  144  151 1   
   149  144  152 1   
   150  145  146 1   
   151  145  153 1   
   152  145  154 1   
   153  146  147 1   
   154  146  155 1   
   155  146  156 1   
   156  147  148 1   
   157  147  157 1   
   158  147  158 1   
   159  148  159 1   
   160  148  160 1   
   161  148  161 1   
   162  162  163 1   
   163  162  171 1   
   164  163  164 1   
   165  163  166 1   
   166  163  172 1   
   167  164  165 2   
   168  164  177 1   
   169  166  167 1   
   170  166  173 1   
   171  166  174 1   
   172  167  168 1   
   173  167  175 1   
   174  167  176 1   
   175  168  169 1   
   176  168  170 1   
   177  177  178 1   
   178  177  182 1   
   179  178  179 1   
   180  178  180 1   
   181  178  181 1   
   182  184  185 1   
   183  184  186 1   
   184  187  188 1   
   185  187  189 1   
   186  190  191 1   
   187  190  192 1   
@<TRIPOS>SUBSTRUCTURE
     1 MOL         1 TEMP              0 ****  ****    0 ROOT
