@<TRIPOS>MOLECULE
MOL
  181   177     1     0     0
SMALL
resp


@<TRIPOS>ATOM
      1 C1        -10.0970    6.4740    1.3340 c3        1 MOL     -0.312339
      2 C2         -9.2820    5.5690    0.3500 c         1 MOL      0.567965
      3 O1         -9.5510    5.5960   -0.8450 o         1 MOL     -0.600219
      4 H1        -11.0660    6.0170    1.5310 hc        1 MOL      0.094728
      5 H2         -9.5490    6.5790    2.2700 hc        1 MOL      0.094728
      6 H3        -10.2450    7.4570    0.8870 hc        1 MOL      0.094728
      7 N1         -8.2720    4.7690    0.7020 n         1 MOL      0.032107
      8 C3         -7.7090    4.4320    2.0210 c3        1 MOL     -0.594319
      9 C4         -6.9040    3.1080    1.9740 c         1 MOL      0.961194
     10 O2         -6.3270    2.7330    0.9800 o         1 MOL     -0.531245
     11 C5         -6.7670    5.5300    2.5650 c3        1 MOL     -0.065693
     12 C6         -5.5940    5.8690    1.6910 c         1 MOL      0.581440
     13 O3         -4.7750    6.6360    2.2050 o         1 MOL     -0.659161
     14 O4         -5.3750    5.3250    0.5840 o         1 MOL     -0.659161
     15 H4         -7.7840    4.3530   -0.0860 hn        1 MOL     -0.006392
     16 H5         -8.4960    4.2450    2.7550 h1        1 MOL      0.162158
     17 H6         -6.3960    5.2680    3.5600 hc        1 MOL      0.069081
     18 H7         -7.2880    6.4480    2.8220 hc        1 MOL      0.069081
     19 N2         -6.9290    2.3010    3.0240 n         1 MOL     -0.783068
     20 C7         -6.5780    0.8390    3.0650 c3        1 MOL      0.138402
     21 C8         -7.1630    0.0460    1.8400 c         1 MOL      0.811254
     22 O5         -8.3950    0.0480    1.6110 o         1 MOL     -0.575728
     23 C9         -7.0870    0.2660    4.3360 c3        1 MOL     -0.177840
     24 H8         -7.1690    2.7110    3.9110 hn        1 MOL      0.371939
     25 H9         -5.5190    0.5850    3.0210 h1        1 MOL      0.031364
     26 H10        -8.1760    0.2420    4.3450 hc        1 MOL      0.057825
     27 H11        -6.8100   -0.7880    4.4490 hc        1 MOL      0.057825
     28 H12        -6.6600    0.7340    5.2230 hc        1 MOL      0.057825
     29 N3         -6.3120   -0.6650    1.0920 n         1 MOL     -0.766445
     30 C10        -6.7010   -1.2270   -0.2230 c3        1 MOL      0.081567
     31 C11        -7.0020   -2.7520   -0.1540 c         1 MOL      0.428068
     32 O6         -6.3830   -3.4850    0.6150 o         1 MOL     -0.446253
     33 C12        -5.5650   -1.0670   -1.2060 c3        1 MOL      0.038917
     34 C13        -5.2890    0.4490   -1.5110 c         1 MOL      0.440464
     35 O7         -4.1550    0.9360   -1.3330 o         1 MOL     -0.628271
     36 O8         -6.2360    1.2100   -1.7910 o         1 MOL     -0.628271
     37 H13        -5.3370   -0.7510    1.3470 hn        1 MOL      0.365086
     38 H14        -7.6040   -0.7760   -0.6430 h1        1 MOL      0.079146
     39 H15        -5.8450   -1.5380   -2.1460 hc        1 MOL      0.001156
     40 H16        -4.6320   -1.4510   -0.7940 hc        1 MOL      0.001156
     41 N4         -7.8290   -3.2230   -1.0440 n         1 MOL     -0.290229
     42 C14        -8.0900   -4.6720   -1.3930 c3        1 MOL     -0.323655
     43 C15        -6.9330   -5.4710   -2.1380 c         1 MOL      0.519065
     44 O9         -6.9970   -6.7050   -2.0990 o         1 MOL     -0.526905
     45 H17        -8.3650   -2.5050   -1.5290 hn        1 MOL      0.244497
     46 H18        -8.9530   -4.7470   -2.0590 h1        1 MOL      0.166985
     47 H19        -8.2550   -5.1250   -0.4160 h1        1 MOL      0.166985
     48 N5         -5.9520   -4.7970   -2.6790 n         1 MOL     -0.302812
     49 C16        -4.6110   -5.3380   -2.9550 c3        1 MOL      0.034404
     50 C17        -3.6010   -5.0860   -1.8280 c         1 MOL      0.524218
     51 O10        -2.5410   -5.6490   -1.8250 o         1 MOL     -0.508947
     52 C18        -4.2430   -4.5460   -4.2120 c3        1 MOL     -0.368385
     53 C19        -4.3010   -3.0360   -4.2490 c         1 MOL      0.729147
     54 N6         -5.2630   -2.4660   -4.8870 n         1 MOL     -0.789565
     55 O11        -3.5240   -2.3450   -3.7550 o         1 MOL     -0.526787
     56 H20        -6.2700   -3.8540   -2.8590 hn        1 MOL      0.188991
     57 H21        -4.6940   -6.3930   -3.1990 h1        1 MOL      0.130800
     58 H22        -4.9710   -4.8600   -4.9600 hc        1 MOL      0.099684
     59 H23        -3.2450   -4.7910   -4.5830 hc        1 MOL      0.099684
     60 H24        -5.9320   -2.9340   -5.4650 hn        1 MOL      0.349908
     61 H25        -5.1520   -1.4600   -4.9410 hn        1 MOL      0.349908
     62 N7         -3.9280   -4.1980   -0.8570 n         1 MOL     -0.177896
     63 C20        -3.0410   -3.8970    0.2430 c3        1 MOL     -0.392623
     64 C21        -2.6520   -5.0850    1.1260 c         1 MOL      0.755189
     65 O12        -3.3610   -6.0740    1.0760 o         1 MOL     -0.578279
     66 H26        -4.8600   -3.8110   -0.8970 hn        1 MOL      0.162099
     67 H27        -3.5470   -3.1620    0.8670 h1        1 MOL      0.164452
     68 H28        -2.1480   -3.6400   -0.3290 h1        1 MOL      0.164452
     69 N8         -1.7630   -4.9820    2.0900 n         1 MOL     -0.498999
     70 C22        -0.9530   -3.7840    2.5820 c3        1 MOL      0.024209
     71 C23         0.3020   -3.4980    1.7410 c         1 MOL      0.474839
     72 O13         0.9090   -4.4580    1.1760 o         1 MOL     -0.497166
     73 C24        -0.6020   -4.0690    4.0740 c3        1 MOL      0.345208
     74 C25        -1.8220   -3.9260    4.9990 c3        1 MOL     -0.329314
     75 O14         0.0410   -5.3760    4.1670 oh        1 MOL     -0.584674
     76 H29        -1.8630   -5.7730    2.7190 hn        1 MOL      0.282125
     77 H30        -1.5490   -2.8720    2.5910 h1        1 MOL      0.050928
     78 H31         0.1600   -3.3750    4.4390 h1        1 MOL      0.014958
     79 H32         0.4020   -5.4290    5.0470 ho        1 MOL      0.386353
     80 H33        -1.6360   -4.3240    5.9970 hc        1 MOL      0.078535
     81 H34        -2.1380   -2.8780    5.0850 hc        1 MOL      0.078535
     82 H35        -2.7040   -4.3910    4.5650 hc        1 MOL      0.078535
     83 N9          0.7040   -2.1860    1.7800 n         1 MOL     -0.431854
     84 C26         1.7880   -1.6040    0.9900 c3        1 MOL      0.027439
     85 C27         2.2300   -0.3140    1.8000 c         1 MOL      0.439884
     86 O15         1.3570    0.5840    2.0840 o         1 MOL     -0.559269
     87 C28         1.4070   -1.2410   -0.4640 c3        1 MOL     -0.200621
     88 C29         0.7980   -2.4810   -1.2390 c3        1 MOL      0.258202
     89 C30         2.4320   -0.3550   -1.1910 c3        1 MOL      0.235048
     90 C31         0.4350   -2.1140   -2.6700 c3        1 MOL     -0.498873
     91 H36         0.0680   -1.6200    2.3140 hn        1 MOL      0.242641
     92 H37         2.5790   -2.3430    0.9140 h1        1 MOL      0.107996
     93 H38         0.5960   -0.5240   -0.3300 hc        1 MOL      0.041835
     94 H39        -0.0800   -2.8490   -0.7120 hc        1 MOL     -0.017824
     95 H40         1.5710   -3.2440   -1.2330 hc        1 MOL     -0.017824
     96 H41         2.1490    0.0250   -2.1850 hc        1 MOL     -0.046842
     97 H42         2.5910    0.5660   -0.6250 hc        1 MOL     -0.046842
     98 H43         3.3580   -0.8810   -1.4460 hc        1 MOL     -0.046842
     99 H44        -0.1660   -1.2100   -2.6820 hc        1 MOL      0.120911
    100 H45         1.4120   -1.9430   -3.1290 hc        1 MOL      0.120911
    101 H46        -0.1470   -2.9180   -3.1100 hc        1 MOL      0.120911
    102 N10         3.4890   -0.0480    2.0690 n         1 MOL     -0.372657
    103 C32         4.6940   -0.9800    1.8730 c3        1 MOL      0.341643
    104 C33         6.0460   -0.2460    1.6450 c         1 MOL      0.611432
    105 O16         6.1460    0.9080    1.9120 o         1 MOL     -0.478855
    106 C34         4.7830   -1.8920    3.1190 c3        1 MOL     -0.340204
    107 C35         5.1720   -1.1710    4.4480 c         1 MOL      0.675555
    108 O17         6.3710   -1.3440    4.8340 o         1 MOL     -0.702363
    109 O18         4.4830   -0.2730    4.9590 o         1 MOL     -0.702363
    110 H47         3.6210    0.8340    2.5330 hn        1 MOL      0.323261
    111 H48         4.5430   -1.6190    1.0120 h1        1 MOL     -0.076064
    112 H49         5.5470   -2.6580    2.9910 hc        1 MOL      0.028936
    113 H50         3.7520   -2.2610    3.1500 hc        1 MOL      0.028936
    114 N11         7.0140   -0.9480    1.1630 n         1 MOL     -0.693525
    115 C36         8.2900   -0.3900    0.7020 c3        1 MOL      0.466097
    116 C37         8.8160   -1.1220   -0.5820 c         1 MOL      0.183308
    117 O19         8.8010   -2.3420   -0.5700 o         1 MOL     -0.491054
    118 C38         9.2670   -0.7400    1.8080 c3        1 MOL     -0.274845
    119 C39        10.6040   -0.1700    1.6950 ca        1 MOL      0.159578
    120 C40        11.6860   -0.8960    1.2820 ca        1 MOL     -0.208417
    121 C41        10.7970    1.2130    2.1220 ca        1 MOL     -0.208417
    122 C42        12.8700   -0.2530    0.9700 ca        1 MOL     -0.070912
    123 C43        12.0520    1.8570    1.8700 ca        1 MOL     -0.070912
    124 C44        13.0360    1.1300    1.2510 ca        1 MOL     -0.169749
    125 H51         6.8030   -1.8630    0.8060 hn        1 MOL      0.353884
    126 H52         8.1720    0.6850    0.5490 h1        1 MOL     -0.015755
    127 H53         9.3150   -1.8340    1.8400 hc        1 MOL      0.104879
    128 H54         8.7500   -0.3350    2.6720 hc        1 MOL      0.104879
    129 H55        11.5390   -1.9330    1.0470 ha        1 MOL      0.151144
    130 H56        10.0070    1.7630    2.6130 ha        1 MOL      0.151144
    131 H57        13.7020   -0.8840    0.6890 ha        1 MOL      0.093783
    132 H58        12.1430    2.8810    2.2020 ha        1 MOL      0.093783
    133 H59        14.0100    1.6040    1.1460 ha        1 MOL      0.091296
    134 N12         9.4020   -0.4390   -1.6090 n         1 MOL      0.037560
    135 C45         9.7060    0.9850   -1.6900 c3        1 MOL     -0.255303
    136 C46         8.5390    1.9130   -2.0790 c         1 MOL      0.678069
    137 O20         8.7130    3.1040   -1.9930 o         1 MOL     -0.561171
    138 C47        10.8260    1.0110   -2.7170 c3        1 MOL      0.062710
    139 C48        10.3520    0.0290   -3.8460 c3        1 MOL      0.045043
    140 C49         9.7440   -1.0810   -2.8890 c3        1 MOL     -0.267236
    141 H60        10.1960    1.3520   -0.7860 h1        1 MOL      0.149770
    142 H61        10.9530    1.9900   -3.1790 hc        1 MOL     -0.005098
    143 H62        11.7460    0.6210   -2.2550 hc        1 MOL     -0.005098
    144 H63         9.5150    0.4460   -4.4040 hc        1 MOL      0.009833
    145 H64        11.1230   -0.3780   -4.5000 hc        1 MOL      0.009833
    146 H65         8.8370   -1.5110   -3.2950 h1        1 MOL      0.105869
    147 H66        10.4410   -1.9140   -2.7720 h1        1 MOL      0.105869
    148 N13         7.3140    1.4520   -2.3560 n         1 MOL     -0.576408
    149 C50         6.0680    2.2620   -2.2750 c3        1 MOL      0.256550
    150 C51         5.0780    1.8850   -3.4240 c         1 MOL      0.397924
    151 O21         4.9310    0.6980   -3.7250 o         1 MOL     -0.572723
    152 C52         5.3920    2.0770   -0.8820 c3        1 MOL      0.015228
    153 C53         4.2420    2.9280   -0.5370 c3        1 MOL     -0.029898
    154 C54         4.6540    4.3680   -0.1010 c         1 MOL      0.651040
    155 O22         4.2540    4.8880    0.9740 o         1 MOL     -0.695024
    156 O23         5.4430    5.0230   -0.8210 o         1 MOL     -0.695024
    157 H67         7.1910    0.4570   -2.4350 hn        1 MOL      0.306963
    158 H68         6.2970    3.3240   -2.4070 h1        1 MOL      0.043421
    159 H69         6.2120    2.2790   -0.1880 hc        1 MOL     -0.006045
    160 H70         5.1140    1.0330   -0.7790 hc        1 MOL     -0.006045
    161 H71         3.8040    2.5600    0.3860 hc        1 MOL     -0.021241
    162 H72         3.4060    2.9420   -1.2390 hc        1 MOL     -0.021241
    163 N14         4.3900    2.8080   -4.1040 n         1 MOL     -0.371115
    164 C55         4.3340    4.2900   -3.8810 c3        1 MOL     -0.097054
    165 H73         3.8330    4.4950   -2.9340 h1        1 MOL      0.063771
    166 H74         5.3460    4.6920   -3.8500 h1        1 MOL      0.063771
    167 H75         3.7800    4.7590   -4.6940 h1        1 MOL      0.063771
    168 H76         4.0550    2.5700   -5.0240 hn        1 MOL      0.273474
    169 Ca1        -4.8590    3.5060   -1.2420 Ca        1 MOL      1.715297
    170 O24        -7.4650    3.8680   -1.9650 oh        1 MOL     -0.848997
    171 H77        -8.0390    4.6330   -1.8480 ho        1 MOL      0.420783
    172 H78        -7.5600    3.6270   -2.8830 ho        1 MOL      0.420783
    173 O25        -3.3320    3.0030    0.8160 oh        1 MOL     -0.848997
    174 H79        -2.6930    2.3190    1.0200 ho        1 MOL      0.420783
    175 H80        -3.6590    3.2820    1.6780 ho        1 MOL      0.420783
    176 O26        -3.8170    2.6710   -3.7210 oh        1 MOL     -0.848997
    177 H81        -4.1260    2.6360   -4.6160 ho        1 MOL      0.420783
    178 H82        -3.2300    1.9280   -3.6340 ho        1 MOL      0.420783
    179 O27        -2.6860    5.1880   -0.9210 oh        1 MOL     -0.848997
    180 H83        -2.9130    5.6580   -0.1190 ho        1 MOL      0.420783
    181 H84        -1.7990    4.8650   -0.7660 ho        1 MOL      0.420783
@<TRIPOS>BOND
     1    1    2 1   
     2    1    4 1   
     3    1    5 1   
     4    1    6 1   
     5    2    3 2   
     6    2    7 1   
     7    7    8 1   
     8    7   15 1   
     9    8    9 1   
    10    8   11 1   
    11    8   16 1   
    12    9   10 2   
    13    9   19 1   
    14   11   12 1   
    15   11   17 1   
    16   11   18 1   
    17   12   13 1   
    18   12   14 1   
    19   19   20 1   
    20   19   24 1   
    21   20   21 1   
    22   20   23 1   
    23   20   25 1   
    24   21   22 2   
    25   21   29 1   
    26   23   26 1   
    27   23   27 1   
    28   23   28 1   
    29   29   30 1   
    30   29   37 1   
    31   30   31 1   
    32   30   33 1   
    33   30   38 1   
    34   31   32 2   
    35   31   41 1   
    36   33   34 1   
    37   33   39 1   
    38   33   40 1   
    39   34   35 1   
    40   34   36 1   
    41   41   42 1   
    42   41   45 1   
    43   42   43 1   
    44   42   46 1   
    45   42   47 1   
    46   43   44 2   
    47   43   48 1   
    48   48   49 1   
    49   48   56 1   
    50   49   50 1   
    51   49   52 1   
    52   49   57 1   
    53   50   51 2   
    54   50   62 1   
    55   52   53 1   
    56   52   58 1   
    57   52   59 1   
    58   53   54 1   
    59   53   55 2   
    60   54   60 1   
    61   54   61 1   
    62   62   63 1   
    63   62   66 1   
    64   63   64 1   
    65   63   67 1   
    66   63   68 1   
    67   64   65 2   
    68   64   69 1   
    69   69   70 1   
    70   69   76 1   
    71   70   71 1   
    72   70   73 1   
    73   70   77 1   
    74   71   72 2   
    75   71   83 1   
    76   73   74 1   
    77   73   75 1   
    78   73   78 1   
    79   74   80 1   
    80   74   81 1   
    81   74   82 1   
    82   75   79 1   
    83   83   84 1   
    84   83   91 1   
    85   84   85 1   
    86   84   87 1   
    87   84   92 1   
    88   85   86 2   
    89   85  102 1   
    90   87   88 1   
    91   87   89 1   
    92   87   93 1   
    93   88   90 1   
    94   88   94 1   
    95   88   95 1   
    96   89   96 1   
    97   89   97 1   
    98   89   98 1   
    99   90   99 1   
   100   90  100 1   
   101   90  101 1   
   102  102  103 1   
   103  102  110 1   
   104  103  104 1   
   105  103  106 1   
   106  103  111 1   
   107  104  105 2   
   108  104  114 1   
   109  106  107 1   
   110  106  112 1   
   111  106  113 1   
   112  107  108 1   
   113  107  109 1   
   114  114  115 1   
   115  114  125 1   
   116  115  116 1   
   117  115  118 1   
   118  115  126 1   
   119  116  117 2   
   120  116  134 1   
   121  118  119 1   
   122  118  127 1   
   123  118  128 1   
   124  119  120 ar  
   125  119  121 ar  
   126  120  122 ar  
   127  120  129 1   
   128  121  123 ar  
   129  121  130 1   
   130  122  124 ar  
   131  122  131 1   
   132  123  124 ar  
   133  123  132 1   
   134  124  133 1   
   135  134  135 1   
   136  134  140 1   
   137  135  136 1   
   138  135  138 1   
   139  135  141 1   
   140  136  137 2   
   141  136  148 1   
   142  138  139 1   
   143  138  142 1   
   144  138  143 1   
   145  139  140 1   
   146  139  144 1   
   147  139  145 1   
   148  140  146 1   
   149  140  147 1   
   150  148  149 1   
   151  148  157 1   
   152  149  150 1   
   153  149  152 1   
   154  149  158 1   
   155  150  151 2   
   156  150  163 1   
   157  152  153 1   
   158  152  159 1   
   159  152  160 1   
   160  153  154 1   
   161  153  161 1   
   162  153  162 1   
   163  154  155 1   
   164  154  156 1   
   165  163  164 1   
   166  163  168 1   
   167  164  165 1   
   168  164  166 1   
   169  164  167 1   
   170  170  171 1   
   171  170  172 1   
   172  173  174 1   
   173  173  175 1   
   174  176  177 1   
   175  176  178 1   
   176  179  180 1   
   177  179  181 1   
@<TRIPOS>SUBSTRUCTURE
     1 MOL         1 TEMP              0 ****  ****    0 ROOT
