@<TRIPOS>MOLECULE
MOL
  195   189     1     0     0
SMALL
resp


@<TRIPOS>ATOM
      1 C1         -6.1370   -3.4580    4.8680 c3        1 MOL     -0.276116
      2 C2         -5.5320   -2.7190    3.6420 c         1 MOL      0.667902
      3 O1         -5.3560   -3.2790    2.5520 o         1 MOL     -0.572828
      4 H1         -5.5830   -4.3790    5.0470 hc        1 MOL      0.070845
      5 H2         -6.0700   -2.8190    5.7480 hc        1 MOL      0.070845
      6 H3         -7.1820   -3.6970    4.6710 hc        1 MOL      0.070845
      7 N1         -5.4310   -1.3920    3.7670 n         1 MOL     -0.348256
      8 C3         -5.0200   -0.4000    2.7750 c3        1 MOL      0.281190
      9 C4         -3.5700   -0.5290    2.3240 c         1 MOL      0.067632
     10 O2         -3.1930    0.2450    1.4080 o         1 MOL     -0.342801
     11 C5         -5.2040    0.9340    3.4760 c3        1 MOL     -0.248698
     12 C6         -6.6430    1.2660    3.8840 c         1 MOL      0.689795
     13 O3         -6.9550    1.0550    5.0850 o         1 MOL     -0.686215
     14 O4         -7.4230    1.6710    3.0280 o         1 MOL     -0.686215
     15 H4         -5.5960   -0.9200    4.6440 hn        1 MOL      0.173929
     16 H5         -5.6690   -0.5160    1.9060 h1        1 MOL      0.048455
     17 H6         -4.8580    1.6550    2.7420 hc        1 MOL      0.034007
     18 H7         -4.4710    1.0500    4.2820 hc        1 MOL      0.034007
     19 N2         -2.7570   -1.3780    2.9050 n         1 MOL     -0.240241
     20 C7         -1.2930   -1.4250    2.8210 c3        1 MOL      0.354096
     21 C8         -0.7700   -2.6350    2.0210 c         1 MOL      0.344058
     22 O5         -1.3530   -3.7040    2.1340 o         1 MOL     -0.495749
     23 C9         -0.6740   -1.2890    4.2040 c3        1 MOL     -0.207827
     24 C10        -0.8340    0.1330    4.7830 c3        1 MOL      0.066895
     25 C11        -0.0870    0.0320    6.1080 c3        1 MOL     -0.079418
     26 C12        -0.0980    1.4300    6.8050 c3        1 MOL      0.169375
     27 N3          0.2180    1.4080    8.2230 n4        1 MOL     -0.491070
     28 H8         -3.2960   -2.0440    3.4430 hn        1 MOL      0.154023
     29 H9         -0.9530   -0.5710    2.2220 h1        1 MOL      0.020251
     30 H10         0.3530   -1.6610    4.2620 hc        1 MOL      0.054033
     31 H11        -1.2000   -1.9050    4.9430 hc        1 MOL      0.054033
     32 H12        -1.8860    0.3390    4.9730 hc        1 MOL      0.013325
     33 H13        -0.4920    0.9020    4.1010 hc        1 MOL      0.013325
     34 H14         0.9520   -0.2360    5.9390 hc        1 MOL      0.044840
     35 H15        -0.6520   -0.7080    6.6690 hc        1 MOL      0.044840
     36 H16        -1.0740    1.9100    6.6720 hx        1 MOL      0.059991
     37 H17         0.6510    2.0680    6.3540 hx        1 MOL      0.059991
     38 H18         0.0200    2.2590    8.7340 hn        1 MOL      0.344782
     39 H19        -0.3790    0.7600    8.7210 hn        1 MOL      0.344782
     40 H20         1.2090    1.2530    8.3170 hn        1 MOL      0.344782
     41 N4          0.3840   -2.6550    1.3420 n         1 MOL     -0.252182
     42 C13         1.1810   -1.5450    0.7820 c3        1 MOL     -0.190357
     43 C14         1.6510   -0.4050    1.7860 c         1 MOL      0.386866
     44 O6          1.0430    0.7000    1.9790 o         1 MOL     -0.513598
     45 C15         0.5020   -0.9080   -0.4960 c3        1 MOL      0.240039
     46 C16         0.2910   -1.9780   -1.6390 c         1 MOL      0.447295
     47 O7          1.2420   -2.7190   -1.9140 o         1 MOL     -0.658256
     48 O8         -0.7090   -1.8930   -2.2930 o         1 MOL     -0.658256
     49 H21         0.5210   -3.4770    0.7780 hn        1 MOL      0.204869
     50 H22         2.1540   -1.9000    0.4550 h1        1 MOL      0.065832
     51 H23         1.1740   -0.1570   -0.9150 hc        1 MOL      0.003701
     52 H24        -0.4490   -0.4580   -0.2040 hc        1 MOL      0.003701
     53 N5          2.8790   -0.4450    2.3130 n         1 MOL     -0.278001
     54 C17         3.8990   -1.4990    2.1640 c3        1 MOL     -0.017261
     55 C18         4.9950   -1.6380    3.2170 c         1 MOL      0.519453
     56 O9          4.9380   -1.0170    4.2760 o         1 MOL     -0.564442
     57 H25         3.0770    0.3320    2.9300 hn        1 MOL      0.268278
     58 H26         4.4620   -1.3720    1.2340 h1        1 MOL      0.070500
     59 H27         3.4220   -2.4760    2.0420 h1        1 MOL      0.070500
     60 N6          5.9960   -2.4850    3.1160 n         1 MOL     -0.345267
     61 C19         6.4310   -3.3310    1.9580 c3        1 MOL     -0.095012
     62 C20         7.0080   -2.4480    0.8140 c         1 MOL      0.419793
     63 O10         7.7130   -1.4850    1.1500 o         1 MOL     -0.415679
     64 C21         7.5670   -4.2600    2.4410 c3        1 MOL     -0.010810
     65 C22         8.7590   -3.5470    3.1270 c         1 MOL      0.714507
     66 O11         9.8980   -3.6390    2.6410 o         1 MOL     -0.668531
     67 O12         8.5520   -3.0010    4.2430 o         1 MOL     -0.668531
     68 H28         6.6270   -2.5470    3.9010 hn        1 MOL      0.248235
     69 H29         5.6070   -3.9520    1.6120 h1        1 MOL      0.028268
     70 H30         7.9870   -4.8760    1.6470 hc        1 MOL     -0.012676
     71 H31         7.2820   -4.9870    3.1940 hc        1 MOL     -0.012676
     72 N7          6.9930   -2.9850   -0.4240 n         1 MOL     -0.300062
     73 C23         7.6760   -2.3470   -1.5310 c3        1 MOL     -0.075389
     74 C24         6.9360   -1.1560   -2.3670 c         1 MOL      0.417021
     75 O13         7.5600   -0.4580   -3.1760 o         1 MOL     -0.550059
     76 H32         6.5430   -3.8640   -0.6400 hn        1 MOL      0.257765
     77 H33         7.9590   -3.0660   -2.3010 h1        1 MOL      0.096860
     78 H34         8.6500   -1.9940   -1.2060 h1        1 MOL      0.096860
     79 N8          5.7020   -0.8910   -2.0670 n         1 MOL     -0.264857
     80 C25         4.9520    0.3300   -2.5350 c3        1 MOL      0.024447
     81 C26         4.9620    1.3740   -1.4040 c         1 MOL      0.649775
     82 O14         4.6630    1.0180   -0.2960 o         1 MOL     -0.524582
     83 C27         3.5630    0.0360   -3.0930 c3        1 MOL      0.494479
     84 C28         3.6440   -0.9790   -4.2660 c3        1 MOL     -0.385538
     85 O15         2.9890    1.2760   -3.4810 oh        1 MOL     -0.658259
     86 H35         5.3440   -1.5110   -1.3550 hn        1 MOL      0.105143
     87 H36         5.4050    0.7670   -3.4350 h1        1 MOL      0.094139
     88 H37         2.9640   -0.4080   -2.3000 h1        1 MOL     -0.050938
     89 H38         2.0790    0.9960   -3.3910 ho        1 MOL      0.430300
     90 H39         4.0700   -0.3590   -5.0530 hc        1 MOL      0.085515
     91 H40         4.2360   -1.8830   -4.1250 hc        1 MOL      0.085515
     92 H41         2.6370   -1.2240   -4.6030 hc        1 MOL      0.085515
     93 N9          5.4370    2.6190   -1.6000 n         1 MOL     -0.316234
     94 C29         5.3810    3.6860   -0.6010 c3        1 MOL     -0.521264
     95 C30         4.0760    4.5320   -0.5590 c         1 MOL      0.743957
     96 O16         4.0910    5.6770   -0.3560 o         1 MOL     -0.567219
     97 C31         6.6630    4.5750   -0.6250 c3        1 MOL      0.443317
     98 C32         6.9330    5.1360   -2.0270 c3        1 MOL     -0.036134
     99 C33         7.7810    3.6920   -0.0870 c3        1 MOL     -0.225294
    100 C34         7.9460    6.2730   -2.0200 c3        1 MOL     -0.304617
    101 H42         5.7730    2.9170   -2.5010 hn        1 MOL      0.197032
    102 H43         5.3760    3.1800    0.3680 h1        1 MOL      0.181555
    103 H44         6.6250    5.3860    0.1100 hc        1 MOL     -0.039566
    104 H45         5.9650    5.5160   -2.3520 hc        1 MOL      0.041318
    105 H46         7.2900    4.3150   -2.6560 hc        1 MOL      0.041318
    106 H47         7.7650    2.7560   -0.6390 hc        1 MOL      0.053800
    107 H48         8.7460    4.1820   -0.2490 hc        1 MOL      0.053800
    108 H49         7.7350    3.5000    0.9880 hc        1 MOL      0.053800
    109 H50         7.8190    6.6490   -3.0370 hc        1 MOL      0.075845
    110 H51         7.6110    7.0100   -1.2980 hc        1 MOL      0.075845
    111 H52         8.9710    5.9910   -1.7790 hc        1 MOL      0.075845
    112 N10         2.8800    3.9490   -0.8730 n         1 MOL     -0.289154
    113 C35         1.6090    4.6910   -0.7190 c3        1 MOL     -0.508074
    114 C36         0.4400    3.7650   -0.4070 c         1 MOL      0.994632
    115 O17         0.4450    2.6140   -0.8570 o         1 MOL     -0.591195
    116 C37         1.1970    5.5780   -1.9350 c3        1 MOL      0.508033
    117 C38         0.8230    4.7690   -3.1420 c3        1 MOL     -0.523395
    118 O18         2.2280    6.4420   -2.4290 oh        1 MOL     -0.612007
    119 H53         2.7890    3.0060   -1.2200 hn        1 MOL      0.161651
    120 H54         1.7310    5.3580    0.1280 h1        1 MOL      0.151703
    121 H55         0.3650    6.1620   -1.5420 h1        1 MOL     -0.032437
    122 H56         2.9670    6.2400   -1.8530 ho        1 MOL      0.378208
    123 H57         1.6860    4.1350   -3.3200 hc        1 MOL      0.138178
    124 H58        -0.0210    4.1070   -2.9490 hc        1 MOL      0.138178
    125 H59         0.6660    5.5210   -3.9030 hc        1 MOL      0.138178
    126 N11        -0.5760    4.1830    0.3670 n         1 MOL     -0.774410
    127 C39        -1.7390    3.3570    0.6820 c3        1 MOL      0.109931
    128 C40        -2.6380    3.3430   -0.5800 c         1 MOL      0.440069
    129 O19        -2.8140    4.2630   -1.3230 o         1 MOL     -0.563678
    130 C41        -2.6390    3.8540    1.8350 c3        1 MOL      0.418612
    131 C42        -3.4620    5.0890    1.5510 c3        1 MOL     -0.332188
    132 O20        -1.9260    4.1390    3.0300 oh        1 MOL     -0.645469
    133 H60        -0.6390    5.1590    0.6180 hn        1 MOL      0.341729
    134 H61        -1.4800    2.3470    0.9790 h1        1 MOL      0.082413
    135 H62        -3.4270    3.1800    2.1540 h1        1 MOL      0.080811
    136 H63        -1.5460    4.9780    2.7680 ho        1 MOL      0.378469
    137 H64        -2.7250    5.7840    1.1480 hc        1 MOL      0.067968
    138 H65        -4.3100    4.9050    0.8900 hc        1 MOL      0.067968
    139 H66        -3.7910    5.5540    2.4830 hc        1 MOL      0.067968
    140 N12        -3.4340    2.3320   -0.7390 n         1 MOL     -0.213218
    141 C43        -4.6320    2.1690   -1.5650 c3        1 MOL     -0.012494
    142 C44        -5.0120    0.7380   -1.8800 c         1 MOL      0.664143
    143 O21        -5.5100    0.4560   -2.9800 o         1 MOL     -0.641425
    144 C45        -5.8240    2.7930   -0.7840 c3        1 MOL      0.189098
    145 C46        -7.1830    2.9830   -1.5130 c3        1 MOL     -0.120044
    146 C47        -7.1170    3.8040   -2.8370 c3        1 MOL     -0.065321
    147 C48        -6.9050    5.3340   -2.5710 c3        1 MOL     -0.022253
    148 N13        -6.8710    6.1680   -3.8170 n4        1 MOL     -0.272334
    149 H67        -3.3270    1.5910   -0.0630 hn        1 MOL     -0.016365
    150 H68        -4.4350    2.6390   -2.5230 h1        1 MOL      0.062490
    151 H69        -5.4700    3.7800   -0.4770 hc        1 MOL     -0.034322
    152 H70        -5.9470    2.1720    0.0990 hc        1 MOL     -0.034322
    153 H71        -7.7970    3.5690   -0.8250 hc        1 MOL      0.070337
    154 H72        -7.5970    1.9800   -1.6180 hc        1 MOL      0.070337
    155 H73        -8.0520    3.6260   -3.3620 hc        1 MOL      0.042155
    156 H74        -6.4180    3.3980   -3.5670 hc        1 MOL      0.042155
    157 H75        -5.9180    5.4310   -2.1290 hx        1 MOL      0.098996
    158 H76        -7.7430    5.6640   -1.9510 hx        1 MOL      0.098996
    159 H77        -7.5440    5.7660   -4.4500 hn        1 MOL      0.296360
    160 H78        -7.2640    7.0840   -3.6880 hn        1 MOL      0.296360
    161 H79        -5.9850    6.1060   -4.2970 hn        1 MOL      0.296360
    162 N14        -4.6650   -0.2070   -0.9780 n         1 MOL     -0.480896
    163 C49        -4.9160   -1.6540   -1.3490 c3        1 MOL     -0.283747
    164 C50        -6.4760   -1.9520   -1.1630 c         1 MOL      0.485757
    165 O22        -7.2150   -1.5920   -0.2070 o         1 MOL     -0.483333
    166 C51        -4.0050   -2.6240   -0.6240 c3        1 MOL      0.583236
    167 C52        -4.0990   -4.0850   -1.0570 c3        1 MOL     -0.590292
    168 C53        -3.9380   -4.3140   -2.5180 c         1 MOL      0.723080
    169 O23        -4.8180   -3.9880   -3.3680 o         1 MOL     -0.721749
    170 O24        -2.8270   -4.7980   -2.8580 o         1 MOL     -0.721749
    171 H80        -4.2720    0.0780   -0.0900 hn        1 MOL      0.344658
    172 H81        -4.6240   -1.8860   -2.3800 h1        1 MOL      0.210718
    173 H82        -4.2670   -2.4510    0.4210 hc        1 MOL     -0.111576
    174 H83        -2.9540   -2.3910   -0.7530 hc        1 MOL     -0.111576
    175 H84        -5.0650   -4.4360   -0.6810 hc        1 MOL      0.142674
    176 H85        -3.3500   -4.7040   -0.5710 hc        1 MOL      0.142674
    177 N15        -6.9690   -2.6280   -2.2310 n         1 MOL     -0.352590
    178 C54        -8.3550   -3.1100   -2.4600 c3        1 MOL      0.029555
    179 H86        -8.4240   -4.1610   -2.1830 h1        1 MOL      0.033177
    180 H87        -9.0480   -2.5280   -1.8530 h1        1 MOL      0.033177
    181 H88        -8.6110   -2.9950   -3.5140 h1        1 MOL      0.033177
    182 H89        -6.2840   -2.7930   -2.9560 hn        1 MOL      0.348435
    183 Ca1        -0.4030   -4.4590   -3.2440 Ca        1 MOL      1.761325
    184 O25        -1.9290   -7.2260   -2.5060 oh        1 MOL     -0.894165
    185 H90        -2.2980   -7.9410   -3.0290 ho        1 MOL      0.435207
    186 H91        -2.5270   -6.4930   -2.6460 ho        1 MOL      0.435207
    187 O26         1.5690   -4.0850   -4.9460 oh        1 MOL     -0.894165
    188 H92         1.4200   -4.0660   -5.8960 ho        1 MOL      0.435207
    189 H93         2.5180   -4.0930   -4.8540 ho        1 MOL      0.435207
    190 O27        -0.7240   -6.1870   -5.3850 oh        1 MOL     -0.894165
    191 H94        -1.3950   -6.8090   -5.6700 ho        1 MOL      0.435207
    192 H95        -0.2410   -5.9740   -6.1770 ho        1 MOL      0.435207
    193 O28        -1.0440   -3.2330   -5.5060 oh        1 MOL     -0.894165
    194 H96        -0.6450   -3.3340   -6.3690 ho        1 MOL      0.435207
    195 H97        -1.8450   -2.7370   -5.6590 ho        1 MOL      0.435207
@<TRIPOS>BOND
     1    1    2 1   
     2    1    4 1   
     3    1    5 1   
     4    1    6 1   
     5    2    3 2   
     6    2    7 1   
     7    7    8 1   
     8    7   15 1   
     9    8    9 1   
    10    8   11 1   
    11    8   16 1   
    12    9   10 2   
    13    9   19 1   
    14   11   12 1   
    15   11   17 1   
    16   11   18 1   
    17   12   13 1   
    18   12   14 1   
    19   19   20 1   
    20   19   28 1   
    21   20   21 1   
    22   20   23 1   
    23   20   29 1   
    24   21   22 2   
    25   21   41 1   
    26   23   24 1   
    27   23   30 1   
    28   23   31 1   
    29   24   25 1   
    30   24   32 1   
    31   24   33 1   
    32   25   26 1   
    33   25   34 1   
    34   25   35 1   
    35   26   27 1   
    36   26   36 1   
    37   26   37 1   
    38   27   38 1   
    39   27   39 1   
    40   27   40 1   
    41   41   42 1   
    42   41   49 1   
    43   42   43 1   
    44   42   45 1   
    45   42   50 1   
    46   43   44 2   
    47   43   53 1   
    48   45   46 1   
    49   45   51 1   
    50   45   52 1   
    51   46   47 1   
    52   46   48 1   
    53   53   54 1   
    54   53   57 1   
    55   54   55 1   
    56   54   58 1   
    57   54   59 1   
    58   55   56 2   
    59   55   60 1   
    60   60   61 1   
    61   60   68 1   
    62   61   62 1   
    63   61   64 1   
    64   61   69 1   
    65   62   63 2   
    66   62   72 1   
    67   64   65 1   
    68   64   70 1   
    69   64   71 1   
    70   65   66 1   
    71   65   67 1   
    72   72   73 1   
    73   72   76 1   
    74   73   74 1   
    75   73   77 1   
    76   73   78 1   
    77   74   75 2   
    78   74   79 1   
    79   79   80 1   
    80   79   86 1   
    81   80   81 1   
    82   80   83 1   
    83   80   87 1   
    84   81   82 2   
    85   81   93 1   
    86   83   84 1   
    87   83   85 1   
    88   83   88 1   
    89   84   90 1   
    90   84   91 1   
    91   84   92 1   
    92   85   89 1   
    93   93   94 1   
    94   93  101 1   
    95   94   95 1   
    96   94   97 1   
    97   94  102 1   
    98   95   96 2   
    99   95  112 1   
   100   97   98 1   
   101   97   99 1   
   102   97  103 1   
   103   98  100 1   
   104   98  104 1   
   105   98  105 1   
   106   99  106 1   
   107   99  107 1   
   108   99  108 1   
   109  100  109 1   
   110  100  110 1   
   111  100  111 1   
   112  112  113 1   
   113  112  119 1   
   114  113  114 1   
   115  113  116 1   
   116  113  120 1   
   117  114  115 2   
   118  114  126 1   
   119  116  117 1   
   120  116  118 1   
   121  116  121 1   
   122  117  123 1   
   123  117  124 1   
   124  117  125 1   
   125  118  122 1   
   126  126  127 1   
   127  126  133 1   
   128  127  128 1   
   129  127  130 1   
   130  127  134 1   
   131  128  129 2   
   132  128  140 1   
   133  130  131 1   
   134  130  132 1   
   135  130  135 1   
   136  131  137 1   
   137  131  138 1   
   138  131  139 1   
   139  132  136 1   
   140  140  141 1   
   141  140  149 1   
   142  141  142 1   
   143  141  144 1   
   144  141  150 1   
   145  142  143 2   
   146  142  162 1   
   147  144  145 1   
   148  144  151 1   
   149  144  152 1   
   150  145  146 1   
   151  145  153 1   
   152  145  154 1   
   153  146  147 1   
   154  146  155 1   
   155  146  156 1   
   156  147  148 1   
   157  147  157 1   
   158  147  158 1   
   159  148  159 1   
   160  148  160 1   
   161  148  161 1   
   162  162  163 1   
   163  162  171 1   
   164  163  164 1   
   165  163  166 1   
   166  163  172 1   
   167  164  165 2   
   168  164  177 1   
   169  166  167 1   
   170  166  173 1   
   171  166  174 1   
   172  167  168 1   
   173  167  175 1   
   174  167  176 1   
   175  168  169 1   
   176  168  170 1   
   177  177  178 1   
   178  177  182 1   
   179  178  179 1   
   180  178  180 1   
   181  178  181 1   
   182  184  185 1   
   183  184  186 1   
   184  187  188 1   
   185  187  189 1   
   186  190  191 1   
   187  190  192 1   
   188  193  194 1   
   189  193  195 1   
@<TRIPOS>SUBSTRUCTURE
     1 MOL         1 TEMP              0 ****  ****    0 ROOT
