@<TRIPOS>MOLECULE
MOL
  178   175     1     0     0
SMALL
resp


@<TRIPOS>ATOM
      1 C1          1.5660   -6.0470    3.0070 c3        1 MOL     -0.347996
      2 C2          3.0710   -5.7260    2.9290 c         1 MOL      0.749601
      3 O1          3.7740   -6.5310    2.3320 o         1 MOL     -0.618183
      4 H1          1.3070   -6.7610    2.2250 hc        1 MOL      0.083280
      5 H2          1.3360   -6.4770    3.9810 hc        1 MOL      0.083280
      6 H3          0.9910   -5.1320    2.8680 hc        1 MOL      0.083280
      7 N1          3.5800   -4.6090    3.3220 n         1 MOL     -0.697790
      8 C3          4.8980   -4.2130    2.8400 c3        1 MOL      0.333807
      9 C4          4.7740   -3.6320    1.4200 c         1 MOL      0.657357
     10 O2          3.8180   -2.9750    1.1060 o         1 MOL     -0.625046
     11 C5          5.4920   -3.1960    3.8500 c3        1 MOL     -0.222967
     12 C6          6.8690   -2.7730    3.3950 c         1 MOL      0.675405
     13 O3          7.0310   -1.5570    3.0490 o         1 MOL     -0.726529
     14 O4          7.7640   -3.5980    3.2060 o         1 MOL     -0.726529
     15 H4          3.0750   -3.9330    3.8940 hn        1 MOL      0.330946
     16 H5          5.5720   -5.0620    2.8720 h1        1 MOL     -0.003127
     17 H6          5.5090   -3.6780    4.8250 hc        1 MOL      0.013678
     18 H7          4.8700   -2.3140    3.9540 hc        1 MOL      0.013678
     19 N2          5.8100   -3.8270    0.6090 n         1 MOL     -0.505793
     20 C7          5.8490   -3.4080   -0.8150 c3        1 MOL      0.152782
     21 C8          4.6700   -4.0060   -1.6370 c         1 MOL      0.560996
     22 O5          4.3120   -5.1470   -1.3580 o         1 MOL     -0.576901
     23 C9          7.2240   -3.8680   -1.4540 c3        1 MOL     -0.574454
     24 H8          6.5780   -4.3840    0.9470 hn        1 MOL      0.316098
     25 H9          5.6660   -2.3410   -0.9380 h1        1 MOL      0.150274
     26 H10         7.2860   -3.5800   -2.5040 hc        1 MOL      0.156464
     27 H11         8.0340   -3.4980   -0.8280 hc        1 MOL      0.156464
     28 H12         7.2110   -4.9540   -1.3150 hc        1 MOL      0.156464
     29 N3          4.0310   -3.3190   -2.5780 n         1 MOL     -0.374327
     30 C10         4.4380   -2.0700   -3.3720 c3        1 MOL     -0.145341
     31 C11         4.1860   -0.7560   -2.6400 c         1 MOL      0.400394
     32 O6          3.3000   -0.5880   -1.7920 o         1 MOL     -0.493830
     33 C12         3.6920   -2.1700   -4.7470 c3        1 MOL     -0.226715
     34 C13         2.2170   -2.2480   -4.6380 c         1 MOL      0.810176
     35 O7          1.6800   -3.3240   -4.9730 o         1 MOL     -0.717525
     36 O8          1.5740   -1.2730   -4.2770 o         1 MOL     -0.717525
     37 H13         3.2220   -3.7690   -2.9850 hn        1 MOL      0.285706
     38 H14         5.5090   -2.1860   -3.5200 h1        1 MOL      0.125972
     39 H15         4.1340   -3.0030   -5.2800 hc        1 MOL      0.051570
     40 H16         4.0200   -1.2690   -5.2520 hc        1 MOL      0.051570
     41 N4          5.0910    0.1930   -2.8450 n         1 MOL     -0.337270
     42 C14         5.2110    1.3940   -2.1080 c3        1 MOL     -0.127421
     43 C15         5.8220    1.0440   -0.7270 c         1 MOL      0.611028
     44 O9          6.0930   -0.1020   -0.3530 o         1 MOL     -0.486220
     45 H17         6.0450   -0.0580   -3.0760 hn        1 MOL      0.235835
     46 H18         4.1840    1.6940   -1.9230 h1        1 MOL      0.116398
     47 H19         5.8360    2.1070   -2.6450 h1        1 MOL      0.116398
     48 N5          6.0600    2.0980    0.0940 n         1 MOL     -0.631332
     49 C16         5.8460    3.5070   -0.1010 c3        1 MOL      0.093689
     50 C17         5.2030    4.2320    1.1300 c         1 MOL      0.433701
     51 O10         5.0440    5.4420    1.0630 o         1 MOL     -0.450067
     52 C18         7.2410    4.2310   -0.2910 c3        1 MOL     -0.216234
     53 C19         8.0390    3.8900   -1.5520 c         1 MOL      0.693129
     54 N6          8.5540    2.6620   -1.6290 n         1 MOL     -0.858435
     55 O11         7.9960    4.5430   -2.5790 o         1 MOL     -0.554676
     56 H20         6.5680    1.8650    0.9380 hn        1 MOL      0.331406
     57 H21         5.0910    3.7180   -0.8630 h1        1 MOL      0.096430
     58 H22         7.8420    4.0450    0.5930 hc        1 MOL      0.071913
     59 H23         7.0580    5.2910   -0.4810 hc        1 MOL      0.071913
     60 H24         8.6710    2.0090   -0.8600 hn        1 MOL      0.380368
     61 H25         8.5500    2.2700   -2.5550 hn        1 MOL      0.380368
     62 N7          4.7440    3.4460    2.0930 n         1 MOL     -0.241621
     63 C20         4.1210    4.0010    3.2600 c3        1 MOL     -0.229574
     64 C21         2.7910    4.7680    2.9740 c         1 MOL      0.500770
     65 O12         2.6020    5.8770    3.4770 o         1 MOL     -0.515675
     66 H26         4.8690    2.4460    2.0270 hn        1 MOL      0.281501
     67 H27         4.6900    4.8190    3.7110 h1        1 MOL      0.121266
     68 H28         3.8600    3.2010    3.9520 h1        1 MOL      0.121266
     69 N8          1.9920    4.2680    2.0350 n         1 MOL     -0.214742
     70 C22         0.8130    4.9510    1.5230 c3        1 MOL     -0.306187
     71 C23        -0.2030    3.9110    1.1180 c         1 MOL      0.642257
     72 O13         0.1070    2.8030    0.7460 o         1 MOL     -0.547554
     73 C24         1.1430    5.8100    0.2770 c3        1 MOL      0.372995
     74 C25         1.7050    7.1250    0.6310 c3        1 MOL     -0.588610
     75 O14         2.1900    5.2650   -0.4360 oh        1 MOL     -0.544843
     76 H29         2.2060    3.3590    1.6480 hn        1 MOL      0.170275
     77 H30         0.3190    5.5880    2.2660 h1        1 MOL      0.148353
     78 H31         0.3340    6.0280   -0.4230 h1        1 MOL      0.042140
     79 H32         1.7450    4.6590   -1.0400 ho        1 MOL      0.375537
     80 H33         2.7300    7.1320    0.9960 hc        1 MOL      0.158684
     81 H34         1.4870    7.7450   -0.2420 hc        1 MOL      0.158684
     82 H35         1.1870    7.5910    1.4580 hc        1 MOL      0.158684
     83 N9         -1.4510    4.3340    1.1130 n         1 MOL     -0.520749
     84 C26        -2.7340    3.6050    0.9180 c3        1 MOL     -0.182047
     85 C27        -3.1090    3.6730   -0.6250 c         1 MOL      0.520945
     86 O15        -3.5070    4.6780   -1.1770 o         1 MOL     -0.556159
     87 C28        -3.7650    4.2330    1.8650 c3        1 MOL      0.034566
     88 C29        -5.2430    3.6800    1.7110 c3        1 MOL     -0.097307
     89 C30        -3.3960    4.0430    3.3000 c3        1 MOL     -0.391467
     90 C31        -5.5960    2.2120    2.0580 c3        1 MOL      0.129690
     91 H36        -1.5020    5.3030    1.3810 hn        1 MOL      0.317655
     92 H37        -2.5830    2.5610    1.1920 h1        1 MOL      0.341136
     93 H38        -3.7600    5.3000    1.6560 hc        1 MOL      0.053942
     94 H39        -5.4560    3.7280    0.6400 hc        1 MOL      0.032236
     95 H40        -6.0200    4.2510    2.2180 hc        1 MOL      0.032236
     96 H41        -3.3440    3.0080    3.6350 hc        1 MOL      0.097950
     97 H42        -2.4650    4.5660    3.4970 hc        1 MOL      0.097950
     98 H43        -4.0960    4.4370    4.0470 hc        1 MOL      0.097950
     99 H44        -5.0500    1.5020    1.4450 hc        1 MOL     -0.040443
    100 H45        -5.3790    1.9920    3.1030 hc        1 MOL     -0.040443
    101 H46        -6.6730    2.0940    1.9460 hc        1 MOL     -0.040443
    102 N10        -3.1740    2.4910   -1.2000 n         1 MOL     -0.301763
    103 C32        -3.5870    2.3130   -2.6540 c3        1 MOL      0.087169
    104 C33        -4.5840    1.1980   -2.8320 c         1 MOL      0.467794
    105 O16        -5.1760    1.0200   -3.8770 o         1 MOL     -0.536099
    106 C34        -2.3720    2.1750   -3.5650 c3        1 MOL     -0.257668
    107 C35        -1.3510    1.1590   -3.1460 c         1 MOL      0.892651
    108 O17        -0.2920    1.5240   -2.5850 o         1 MOL     -0.828450
    109 O18        -1.4450   -0.0750   -3.3300 o         1 MOL     -0.828450
    110 H47        -2.7860    1.7480   -0.6400 hn        1 MOL      0.256629
    111 H48        -4.0870    3.1930   -3.0560 h1        1 MOL      0.091578
    112 H49        -1.8960    3.1540   -3.6540 hc        1 MOL      0.071985
    113 H50        -2.6900    1.9380   -4.5740 hc        1 MOL      0.071985
    114 N11        -4.8910    0.5320   -1.7080 n         1 MOL     -0.512159
    115 C36        -6.1890   -0.2260   -1.5090 c3        1 MOL      0.286521
    116 C37        -6.0090   -1.3400   -0.5400 c         1 MOL      0.246578
    117 O19        -6.6200   -1.3390    0.5780 o         1 MOL     -0.484648
    118 C38        -7.2580    0.7300   -1.1020 c3        1 MOL     -0.154832
    119 C39        -8.7540    0.3600   -1.1820 ca        1 MOL      0.122232
    120 C40        -9.3470   -0.0090   -2.4010 ca        1 MOL     -0.184163
    121 C41        -9.5960    0.2380    0.0200 ca        1 MOL     -0.184163
    122 C42       -10.7080   -0.1710   -2.5370 ca        1 MOL     -0.078811
    123 C43       -10.8970   -0.1190   -0.0990 ca        1 MOL     -0.078811
    124 C44       -11.5070   -0.1150   -1.3650 ca        1 MOL     -0.173517
    125 H51        -4.3510    0.7380   -0.8870 hn        1 MOL      0.280288
    126 H52        -6.5460   -0.6810   -2.4450 h1        1 MOL      0.025646
    127 H53        -7.2790    1.6370   -1.7180 hc        1 MOL      0.060310
    128 H54        -7.0610    1.0450   -0.0770 hc        1 MOL      0.060310
    129 H55        -8.7090   -0.0270   -3.2750 ha        1 MOL      0.124872
    130 H56        -9.0520    0.2950    0.9480 ha        1 MOL      0.124872
    131 H57       -11.1440   -0.2340   -3.5220 ha        1 MOL      0.095444
    132 H58       -11.5140   -0.2860    0.7710 ha        1 MOL      0.095444
    133 H59       -12.5890   -0.1890   -1.4190 ha        1 MOL      0.100478
    134 N12        -5.1230   -2.3300   -0.8760 n         1 MOL      0.039987
    135 C45        -4.9590   -3.5420   -0.0340 c3        1 MOL     -0.273420
    136 C46        -4.4500   -3.4210    1.4210 c         1 MOL      0.384459
    137 O20        -4.5030   -4.3450    2.1840 o         1 MOL     -0.479280
    138 C47        -3.9180   -4.4090   -0.7310 c3        1 MOL      0.002206
    139 C48        -4.1590   -3.9460   -2.1690 c3        1 MOL     -0.038104
    140 C49        -4.4050   -2.4820   -2.0840 c3        1 MOL     -0.148280
    141 H60        -5.8800   -4.1100   -0.1270 h1        1 MOL      0.139101
    142 H61        -2.8920   -4.1690   -0.4390 hc        1 MOL      0.053877
    143 H62        -3.9590   -5.4920   -0.6070 hc        1 MOL      0.053877
    144 H63        -3.3880   -4.2190   -2.8990 hc        1 MOL      0.017735
    145 H64        -5.0470   -4.4630   -2.5380 hc        1 MOL      0.017735
    146 H65        -3.4730   -1.9210   -2.1090 h1        1 MOL      0.109871
    147 H66        -5.0290   -2.3230   -2.9750 h1        1 MOL      0.109871
    148 N13        -3.9440   -2.2280    1.8230 n         1 MOL     -0.130322
    149 C50        -3.5390   -1.8760    3.1870 c3        1 MOL     -0.206038
    150 C51        -4.7350   -1.8860    4.2010 c         1 MOL      0.473719
    151 O21        -4.6100   -2.5740    5.2420 o         1 MOL     -0.537237
    152 C52        -2.9470   -0.4640    3.2450 c3        1 MOL      0.180693
    153 C53        -1.6710   -0.2180    2.4040 c3        1 MOL     -0.139906
    154 C54        -1.6820   -0.3540    0.8420 c         1 MOL      0.553602
    155 O22        -0.8050   -1.0550    0.2490 o         1 MOL     -0.727316
    156 O23        -2.7330    0.0520    0.3500 o         1 MOL     -0.727316
    157 H67        -3.8610   -1.5700    1.0640 hn        1 MOL      0.401175
    158 H68        -2.7070   -2.4900    3.5450 h1        1 MOL      0.110196
    159 H69        -2.6760   -0.3200    4.2900 hc        1 MOL     -0.036751
    160 H70        -3.7120    0.2060    2.8550 hc        1 MOL     -0.036751
    161 H71        -0.8140   -0.7540    2.8060 hc        1 MOL      0.014380
    162 H72        -1.4410    0.8310    2.6310 hc        1 MOL      0.014380
    163 N14        -5.9070   -1.3290    3.8490 n         1 MOL     -0.245635
    164 C55        -7.1830   -1.5260    4.5120 c3        1 MOL     -0.170277
    165 H73        -7.7630   -2.2720    3.9680 h1        1 MOL      0.086672
    166 H74        -7.0140   -1.8700    5.5320 h1        1 MOL      0.086672
    167 H75        -7.7320   -0.5840    4.5310 h1        1 MOL      0.086672
    168 H76        -5.9190   -0.9530    2.9060 hn        1 MOL      0.213296
    169 Ca1         0.6820   -0.7290   -1.7350 Ca        1 MOL      1.743399
    170 O24        -0.5300   -3.1260   -2.7410 oh        1 MOL     -0.833277
    171 H77        -0.5090   -3.8370   -3.3740 ho        1 MOL      0.420542
    172 H78        -1.3410   -2.6630   -2.9270 ho        1 MOL      0.420542
    173 O25         1.6800   -2.9310   -0.5750 oh        1 MOL     -0.833277
    174 H79         2.4350   -2.7660   -0.0230 ho        1 MOL      0.420542
    175 H80         1.3320   -3.7680   -0.2620 ho        1 MOL      0.420542
    176 O26         1.6460    0.7590    0.1010 oh        1 MOL     -0.833277
    177 H81         1.1650    1.5660    0.2660 ho        1 MOL      0.420542
    178 H82         2.1290    0.5870    0.9110 ho        1 MOL      0.420542
@<TRIPOS>BOND
     1    1    2 1   
     2    1    4 1   
     3    1    5 1   
     4    1    6 1   
     5    2    3 2   
     6    2    7 1   
     7    7    8 1   
     8    7   15 1   
     9    8    9 1   
    10    8   11 1   
    11    8   16 1   
    12    9   10 2   
    13    9   19 1   
    14   11   12 1   
    15   11   17 1   
    16   11   18 1   
    17   12   13 1   
    18   12   14 1   
    19   19   20 1   
    20   19   24 1   
    21   20   21 1   
    22   20   23 1   
    23   20   25 1   
    24   21   22 2   
    25   21   29 1   
    26   23   26 1   
    27   23   27 1   
    28   23   28 1   
    29   29   30 1   
    30   29   37 1   
    31   30   31 1   
    32   30   33 1   
    33   30   38 1   
    34   31   32 2   
    35   31   41 1   
    36   33   34 1   
    37   33   39 1   
    38   33   40 1   
    39   34   35 1   
    40   34   36 1   
    41   41   42 1   
    42   41   45 1   
    43   42   43 1   
    44   42   46 1   
    45   42   47 1   
    46   43   44 2   
    47   43   48 1   
    48   48   49 1   
    49   48   56 1   
    50   49   50 1   
    51   49   52 1   
    52   49   57 1   
    53   50   51 2   
    54   50   62 1   
    55   52   53 1   
    56   52   58 1   
    57   52   59 1   
    58   53   54 1   
    59   53   55 2   
    60   54   60 1   
    61   54   61 1   
    62   62   63 1   
    63   62   66 1   
    64   63   64 1   
    65   63   67 1   
    66   63   68 1   
    67   64   65 2   
    68   64   69 1   
    69   69   70 1   
    70   69   76 1   
    71   70   71 1   
    72   70   73 1   
    73   70   77 1   
    74   71   72 2   
    75   71   83 1   
    76   73   74 1   
    77   73   75 1   
    78   73   78 1   
    79   74   80 1   
    80   74   81 1   
    81   74   82 1   
    82   75   79 1   
    83   83   84 1   
    84   83   91 1   
    85   84   85 1   
    86   84   87 1   
    87   84   92 1   
    88   85   86 2   
    89   85  102 1   
    90   87   88 1   
    91   87   89 1   
    92   87   93 1   
    93   88   90 1   
    94   88   94 1   
    95   88   95 1   
    96   89   96 1   
    97   89   97 1   
    98   89   98 1   
    99   90   99 1   
   100   90  100 1   
   101   90  101 1   
   102  102  103 1   
   103  102  110 1   
   104  103  104 1   
   105  103  106 1   
   106  103  111 1   
   107  104  105 2   
   108  104  114 1   
   109  106  107 1   
   110  106  112 1   
   111  106  113 1   
   112  107  108 1   
   113  107  109 1   
   114  114  115 1   
   115  114  125 1   
   116  115  116 1   
   117  115  118 1   
   118  115  126 1   
   119  116  117 2   
   120  116  134 1   
   121  118  119 1   
   122  118  127 1   
   123  118  128 1   
   124  119  120 ar  
   125  119  121 ar  
   126  120  122 ar  
   127  120  129 1   
   128  121  123 ar  
   129  121  130 1   
   130  122  124 ar  
   131  122  131 1   
   132  123  124 ar  
   133  123  132 1   
   134  124  133 1   
   135  134  135 1   
   136  134  140 1   
   137  135  136 1   
   138  135  138 1   
   139  135  141 1   
   140  136  137 2   
   141  136  148 1   
   142  138  139 1   
   143  138  142 1   
   144  138  143 1   
   145  139  140 1   
   146  139  144 1   
   147  139  145 1   
   148  140  146 1   
   149  140  147 1   
   150  148  149 1   
   151  148  157 1   
   152  149  150 1   
   153  149  152 1   
   154  149  158 1   
   155  150  151 2   
   156  150  163 1   
   157  152  153 1   
   158  152  159 1   
   159  152  160 1   
   160  153  154 1   
   161  153  161 1   
   162  153  162 1   
   163  154  155 1   
   164  154  156 1   
   165  163  164 1   
   166  163  168 1   
   167  164  165 1   
   168  164  166 1   
   169  164  167 1   
   170  170  171 1   
   171  170  172 1   
   172  173  174 1   
   173  173  175 1   
   174  176  177 1   
   175  176  178 1   
@<TRIPOS>SUBSTRUCTURE
     1 MOL         1 TEMP              0 ****  ****    0 ROOT
