@<TRIPOS>MOLECULE
MOL
  192   187     1     0     0
SMALL
resp


@<TRIPOS>ATOM
      1 C1          2.4820    8.6040    2.1970 c3        1 MOL     -0.382787
      2 C2          1.6390    7.3350    2.1930 c         1 MOL      0.694614
      3 O1          1.4740    6.7060    3.2340 o         1 MOL     -0.598686
      4 H1          2.0430    9.3340    1.5170 hc        1 MOL      0.096149
      5 H2          2.5120    9.0170    3.2050 hc        1 MOL      0.096149
      6 H3          3.4950    8.3680    1.8710 hc        1 MOL      0.096149
      7 N1          1.1440    6.8890    1.0700 n         1 MOL     -0.441178
      8 C3          0.2170    5.7410    0.9230 c3        1 MOL     -0.003612
      9 C4          0.8300    4.5960    0.1250 c         1 MOL      0.503473
     10 O2          0.1320    3.7240   -0.4620 o         1 MOL     -0.517563
     11 C5         -1.1230    6.2510    0.4630 c3        1 MOL     -0.124551
     12 C6         -1.1430    6.9180   -0.8950 c         1 MOL      0.634674
     13 O3         -2.0740    7.7660   -1.0750 o         1 MOL     -0.678521
     14 O4         -0.2510    6.6860   -1.7520 o         1 MOL     -0.678521
     15 H4          1.2340    7.4790    0.2530 hn        1 MOL      0.255919
     16 H5          0.0600    5.2780    1.8990 h1        1 MOL      0.119611
     17 H6         -1.4690    6.9630    1.2130 hc        1 MOL      0.054170
     18 H7         -1.8270    5.4200    0.4960 hc        1 MOL      0.054170
     19 N2          2.1740    4.5380    0.1800 n         1 MOL     -0.473909
     20 C7          3.0760    3.6300   -0.6680 c3        1 MOL      0.077140
     21 C8          4.0120    2.7640    0.1900 c         1 MOL      0.589553
     22 O5          4.7000    3.3650    0.9920 o         1 MOL     -0.542727
     23 C9          3.9710    4.3860   -1.6880 c3        1 MOL     -0.149878
     24 C10         3.2790    5.2210   -2.7990 c3        1 MOL     -0.097850
     25 C11         2.1610    4.5270   -3.6120 c3        1 MOL      0.035161
     26 C12         1.6520    5.4410   -4.7110 c3        1 MOL      0.051217
     27 N3          1.0670    6.7220   -4.2130 n4        1 MOL     -0.210435
     28 H8          2.7300    5.2440    0.6330 hn        1 MOL      0.275812
     29 H9          2.3670    3.0780   -1.2860 h1        1 MOL      0.135883
     30 H10         4.7130    3.6980   -2.0790 hc        1 MOL      0.060895
     31 H11         4.4700    5.1160   -1.0450 hc        1 MOL      0.060895
     32 H12         4.0730    5.4790   -3.5040 hc        1 MOL      0.024973
     33 H13         2.9090    6.0980   -2.2790 hc        1 MOL      0.024973
     34 H14         1.3920    4.2600   -2.8900 hc        1 MOL      0.042900
     35 H15         2.4670    3.5950   -4.0850 hc        1 MOL      0.042900
     36 H16         0.9080    4.9070   -5.2970 hx        1 MOL      0.044699
     37 H17         2.4620    5.6700   -5.4030 hx        1 MOL      0.044699
     38 H18         0.6350    7.1360   -5.0200 hn        1 MOL      0.261001
     39 H19         0.3900    6.6870   -3.4640 hn        1 MOL      0.261001
     40 H20         1.7730    7.3700   -3.8930 hn        1 MOL      0.261001
     41 N4          4.2150    1.4780   -0.0790 n         1 MOL     -0.538559
     42 C13         3.5660    0.5760   -1.1040 c3        1 MOL      0.046339
     43 C14         3.6950    1.0170   -2.5930 c         1 MOL      0.519623
     44 O6          2.6550    1.1760   -3.2700 o         1 MOL     -0.574415
     45 C15         2.1170    0.1780   -0.6550 c3        1 MOL     -0.215506
     46 C16         1.8240   -0.0420    0.8910 c         1 MOL      0.826789
     47 O7          2.6090   -0.5670    1.6840 o         1 MOL     -0.746989
     48 O8          0.6380    0.1190    1.3110 o         1 MOL     -0.746989
     49 H21         4.7320    0.9550    0.6180 hn        1 MOL      0.337298
     50 H22         4.0010   -0.4240   -1.1570 h1        1 MOL      0.085040
     51 H23         1.8600   -0.7530   -1.1590 hc        1 MOL      0.053129
     52 H24         1.4410    0.9880   -0.9420 hc        1 MOL      0.053129
     53 N5          4.8820    1.2780   -3.1140 n         1 MOL     -0.488705
     54 C17         6.2010    1.1780   -2.4300 c3        1 MOL      0.236440
     55 C18         6.8610   -0.2380   -2.5530 c         1 MOL      0.362554
     56 O9          6.6680   -0.9390   -3.5190 o         1 MOL     -0.531843
     57 H25         4.9320    1.5640   -4.0870 hn        1 MOL      0.310434
     58 H26         6.0700    1.4680   -1.3810 h1        1 MOL     -0.005631
     59 H27         6.9240    1.9150   -2.7910 h1        1 MOL     -0.005631
     60 N6          7.6330   -0.7140   -1.5970 n         1 MOL     -0.211470
     61 C19         8.0970    0.0990   -0.3630 c3        1 MOL     -0.169825
     62 C20         7.3340   -0.2420    0.9080 c         1 MOL      0.567684
     63 O10         7.4220    0.4410    1.8910 o         1 MOL     -0.556376
     64 C21         9.5920   -0.1080   -0.1680 c3        1 MOL     -0.232571
     65 C22        10.1170   -1.5870   -0.0970 c         1 MOL      0.676302
     66 O11        11.3380   -1.7940    0.1320 o         1 MOL     -0.647570
     67 O12         9.3560   -2.5970   -0.1940 o         1 MOL     -0.647570
     68 H28         7.9720   -1.6660   -1.6360 hn        1 MOL      0.232290
     69 H29         7.9460    1.1530   -0.5590 h1        1 MOL      0.113569
     70 H30         9.9400    0.4680    0.6920 hc        1 MOL      0.072191
     71 H31        10.0740    0.3600   -1.0340 hc        1 MOL      0.072191
     72 N7          6.4960   -1.1990    0.6940 n         1 MOL     -0.118597
     73 C23         5.6010   -1.8150    1.6270 c3        1 MOL     -0.280559
     74 C24         4.7100   -2.8130    0.8730 c         1 MOL      0.774938
     75 O13         4.5480   -2.8080   -0.3370 o         1 MOL     -0.483850
     76 H32         6.5720   -1.6890   -0.1840 hn        1 MOL      0.128170
     77 H33         4.9490   -1.1040    2.1370 h1        1 MOL      0.096986
     78 H34         6.2430   -2.3340    2.3360 h1        1 MOL      0.096986
     79 N8          4.1210   -3.7270    1.6540 n         1 MOL     -0.830934
     80 C25         3.1380   -4.7560    1.1180 c3        1 MOL      0.155209
     81 C26         1.8750   -4.0200    0.5670 c         1 MOL      0.604197
     82 O14         1.3360   -3.1630    1.2380 o         1 MOL     -0.676058
     83 C27         2.8300   -5.8520    2.1650 c3        1 MOL      0.268238
     84 C28         1.8240   -6.9030    1.5930 c3        1 MOL     -0.464852
     85 O15         2.2580   -5.3070    3.2910 oh        1 MOL     -0.513906
     86 H35         4.5490   -3.7420    2.5730 hn        1 MOL      0.363859
     87 H36         3.4780   -5.3310    0.2590 h1        1 MOL      0.034787
     88 H37         3.7520   -6.3080    2.5360 h1        1 MOL      0.051637
     89 H38         2.8860   -4.6270    3.5360 ho        1 MOL      0.321056
     90 H39         0.8220   -6.5430    1.3380 hc        1 MOL      0.135350
     91 H40         2.2010   -7.2900    0.6420 hc        1 MOL      0.135350
     92 H41         1.7650   -7.6900    2.3400 hc        1 MOL      0.135350
     93 N9          1.4940   -4.3590   -0.6500 n         1 MOL     -0.375599
     94 C29         0.4180   -3.8260   -1.3820 c3        1 MOL     -0.061493
     95 C30        -0.8190   -4.6960   -1.1220 c         1 MOL      0.500791
     96 O16        -0.7950   -5.9240   -1.1640 o         1 MOL     -0.544400
     97 C31         0.7300   -3.7830   -2.8880 c3        1 MOL      0.026458
     98 C32         1.9180   -2.8460   -3.1030 c3        1 MOL      0.007146
     99 C33        -0.5210   -3.2560   -3.6150 c3        1 MOL     -0.196803
    100 C34         2.5090   -2.6970   -4.5660 c3        1 MOL     -0.115866
    101 H42         1.9710   -5.2140   -0.9180 hn        1 MOL      0.267715
    102 H43         0.2950   -2.8180   -1.0160 h1        1 MOL      0.047129
    103 H44         0.9640   -4.7880   -3.2320 hc        1 MOL      0.034128
    104 H45         2.7170   -3.1570   -2.4370 hc        1 MOL      0.050923
    105 H46         1.4820   -1.8600   -2.9150 hc        1 MOL      0.050923
    106 H47        -0.1510   -2.9790   -4.6020 hc        1 MOL      0.047145
    107 H48        -1.3070   -3.9990   -3.7450 hc        1 MOL      0.047145
    108 H49        -1.0780   -2.3800   -3.2780 hc        1 MOL      0.047145
    109 H50         2.4990   -3.6630   -5.0720 hc        1 MOL      0.034347
    110 H51         1.8290   -2.1490   -5.2160 hc        1 MOL      0.034347
    111 H52         3.5290   -2.3080   -4.5190 hc        1 MOL      0.034347
    112 N10        -1.8980   -4.0670   -0.6600 n         1 MOL     -0.071511
    113 C35        -3.2520   -4.6610   -0.4580 c3        1 MOL     -0.483647
    114 C36        -4.4020   -3.8890   -1.1730 c         1 MOL      0.501955
    115 O17        -5.4880   -4.3740   -1.2660 o         1 MOL     -0.481666
    116 C37        -3.5160   -5.0230    1.0720 c3        1 MOL      0.443320
    117 C38        -3.8140   -3.6560    1.7850 c3        1 MOL     -0.256091
    118 O18        -2.4440   -5.6400    1.7600 oh        1 MOL     -0.666016
    119 H53        -1.8510   -3.0690   -0.5730 hn        1 MOL      0.244003
    120 H54        -3.3150   -5.5750   -1.0440 h1        1 MOL      0.202601
    121 H55        -4.3650   -5.6970    1.1890 h1        1 MOL      0.015979
    122 H56        -2.5770   -6.5970    1.7560 ho        1 MOL      0.421486
    123 H57        -3.8330   -3.8690    2.8500 hc        1 MOL      0.066324
    124 H58        -2.9790   -2.9900    1.5500 hc        1 MOL      0.066324
    125 H59        -4.8190   -3.3090    1.5560 hc        1 MOL      0.066324
    126 N11        -4.1090   -2.7530   -1.8380 n         1 MOL     -0.290337
    127 C39        -4.9960   -2.0950   -2.7710 c3        1 MOL     -0.051599
    128 C40        -6.2840   -1.5930   -2.0430 c         1 MOL      0.572699
    129 O19        -7.4530   -1.8730   -2.4530 o         1 MOL     -0.529620
    130 C41        -5.2640   -2.9910   -4.0250 c3        1 MOL      0.206689
    131 C42        -3.9840   -3.7220   -4.4790 c3        1 MOL     -0.061678
    132 O20        -5.6570   -2.0650   -5.0300 oh        1 MOL     -0.677926
    133 H60        -3.1880   -2.3720   -1.6260 hn        1 MOL      0.227829
    134 H61        -4.4880   -1.1890   -3.1040 h1        1 MOL      0.143802
    135 H62        -5.9790   -3.8120   -3.9750 h1        1 MOL      0.048762
    136 H63        -5.8260   -2.5270   -5.8500 ho        1 MOL      0.429360
    137 H64        -3.8340   -4.6150   -3.8710 hc        1 MOL      0.023401
    138 H65        -4.1210   -4.0520   -5.4990 hc        1 MOL      0.023401
    139 H66        -3.1620   -3.0080   -4.5180 hc        1 MOL      0.023401
    140 N12        -6.0860   -0.8120   -0.9680 n         1 MOL     -0.454745
    141 C43        -7.1690    0.0260   -0.5010 c3        1 MOL     -0.030263
    142 C44        -7.0500    0.3340    1.0010 c         1 MOL      0.548925
    143 O21        -8.1280    0.2300    1.6780 o         1 MOL     -0.559464
    144 C45        -7.1420    1.3180   -1.4090 c3        1 MOL      0.035912
    145 C46        -8.4650    2.1780   -1.1840 c3        1 MOL      0.011336
    146 C47        -9.7590    1.4910   -1.5550 c3        1 MOL     -0.190735
    147 C48        -9.7400    0.8330   -2.9680 c3        1 MOL      0.111835
    148 N13       -10.8180   -0.1180   -3.3290 n4        1 MOL     -0.336532
    149 H67        -5.1190   -0.6270   -0.7590 hn        1 MOL      0.227924
    150 H68        -8.1550   -0.3860   -0.7410 h1        1 MOL      0.112397
    151 H69        -7.1590    1.0270   -2.4640 hc        1 MOL      0.000057
    152 H70        -6.2370    1.8700   -1.1800 hc        1 MOL      0.000057
    153 H71        -8.3920    3.0920   -1.7750 hc        1 MOL      0.043277
    154 H72        -8.4030    2.5850   -0.1700 hc        1 MOL      0.043277
    155 H73       -10.5670    2.2150   -1.4990 hc        1 MOL      0.073762
    156 H74       -10.0180    0.7520   -0.7940 hc        1 MOL      0.073762
    157 H75        -8.8250    0.2640   -3.0950 hx        1 MOL      0.058516
    158 H76        -9.7780    1.5760   -3.7630 hx        1 MOL      0.058516
    159 H77       -10.7080   -0.4590   -4.2740 hn        1 MOL      0.288302
    160 H78       -10.9570   -0.9160   -2.7160 hn        1 MOL      0.288302
    161 H79       -11.6560    0.4590   -3.2950 hn        1 MOL      0.288302
    162 N14        -5.9340    0.8350    1.4800 n         1 MOL     -0.256939
    163 C49        -5.5440    1.2950    2.8230 c3        1 MOL     -0.609783
    164 C50        -6.1080    2.7180    3.1700 c         1 MOL      0.709701
    165 O22        -6.0640    3.6510    2.4390 o         1 MOL     -0.529804
    166 C51        -4.0080    1.1680    3.0450 c3        1 MOL      0.277492
    167 C52        -3.6080   -0.3540    3.2380 c3        1 MOL     -0.170430
    168 C53        -2.1000   -0.3850    3.5170 c         1 MOL      0.671681
    169 O23        -1.3870   -1.0390    2.7420 o         1 MOL     -0.714777
    170 O24        -1.6250    0.2150    4.4890 o         1 MOL     -0.714777
    171 H80        -5.2520    1.0480    0.7700 hn        1 MOL      0.322999
    172 H81        -5.9320    0.5880    3.5670 h1        1 MOL      0.202299
    173 H82        -3.6480    1.7570    3.8910 hc        1 MOL      0.011040
    174 H83        -3.5310    1.4880    2.1180 hc        1 MOL      0.011040
    175 H84        -3.7700   -0.7710    2.2380 hc        1 MOL      0.025280
    176 H85        -4.1810   -0.8440    4.0260 hc        1 MOL      0.025280
    177 N15        -6.5400    2.8170    4.4230 n         1 MOL     -0.363425
    178 C54        -7.2800    4.0030    4.9090 c3        1 MOL     -0.184451
    179 H86        -7.0230    4.8670    4.2960 h1        1 MOL      0.101687
    180 H87        -8.3520    3.8160    4.8420 h1        1 MOL      0.101687
    181 H88        -7.0100    4.2020    5.9460 h1        1 MOL      0.101687
    182 H89        -6.4970    2.0050    5.0190 hn        1 MOL      0.270899
    183 Ca1         1.0050   -1.5460    3.4480 Ca        1 MOL      1.802088
    184 O25         1.6320    0.9340    4.5270 oh        1 MOL     -0.898816
    185 H90         2.2360    1.6850    4.4710 ho        1 MOL      0.440314
    186 H91         1.0230    1.1800    5.2270 ho        1 MOL      0.440314
    187 O26        -0.6200   -3.6590    3.4850 oh        1 MOL     -0.898816
    188 H92        -1.4340   -3.5320    2.9970 ho        1 MOL      0.440314
    189 H93        -0.5100   -4.6090    3.5260 ho        1 MOL      0.440314
    190 O27         0.1550   -1.4880    5.9900 oh        1 MOL     -0.898816
    191 H94        -0.4380   -2.0930    6.4320 ho        1 MOL      0.440314
    192 H95        -0.1660   -0.6110    6.2340 ho        1 MOL      0.440314
@<TRIPOS>BOND
     1    1    2 1   
     2    1    4 1   
     3    1    5 1   
     4    1    6 1   
     5    2    3 2   
     6    2    7 1   
     7    7    8 1   
     8    7   15 1   
     9    8    9 1   
    10    8   11 1   
    11    8   16 1   
    12    9   10 2   
    13    9   19 1   
    14   11   12 1   
    15   11   17 1   
    16   11   18 1   
    17   12   13 1   
    18   12   14 1   
    19   19   20 1   
    20   19   28 1   
    21   20   21 1   
    22   20   23 1   
    23   20   29 1   
    24   21   22 2   
    25   21   41 1   
    26   23   24 1   
    27   23   30 1   
    28   23   31 1   
    29   24   25 1   
    30   24   32 1   
    31   24   33 1   
    32   25   26 1   
    33   25   34 1   
    34   25   35 1   
    35   26   27 1   
    36   26   36 1   
    37   26   37 1   
    38   27   38 1   
    39   27   39 1   
    40   27   40 1   
    41   41   42 1   
    42   41   49 1   
    43   42   43 1   
    44   42   45 1   
    45   42   50 1   
    46   43   44 2   
    47   43   53 1   
    48   45   46 1   
    49   45   51 1   
    50   45   52 1   
    51   46   47 1   
    52   46   48 1   
    53   53   54 1   
    54   53   57 1   
    55   54   55 1   
    56   54   58 1   
    57   54   59 1   
    58   55   56 2   
    59   55   60 1   
    60   60   61 1   
    61   60   68 1   
    62   61   62 1   
    63   61   64 1   
    64   61   69 1   
    65   62   63 2   
    66   62   72 1   
    67   64   65 1   
    68   64   70 1   
    69   64   71 1   
    70   65   66 1   
    71   65   67 1   
    72   72   73 1   
    73   72   76 1   
    74   73   74 1   
    75   73   77 1   
    76   73   78 1   
    77   74   75 2   
    78   74   79 1   
    79   79   80 1   
    80   79   86 1   
    81   80   81 1   
    82   80   83 1   
    83   80   87 1   
    84   81   82 2   
    85   81   93 1   
    86   83   84 1   
    87   83   85 1   
    88   83   88 1   
    89   84   90 1   
    90   84   91 1   
    91   84   92 1   
    92   85   89 1   
    93   93   94 1   
    94   93  101 1   
    95   94   95 1   
    96   94   97 1   
    97   94  102 1   
    98   95   96 2   
    99   95  112 1   
   100   97   98 1   
   101   97   99 1   
   102   97  103 1   
   103   98  100 1   
   104   98  104 1   
   105   98  105 1   
   106   99  106 1   
   107   99  107 1   
   108   99  108 1   
   109  100  109 1   
   110  100  110 1   
   111  100  111 1   
   112  112  113 1   
   113  112  119 1   
   114  113  114 1   
   115  113  116 1   
   116  113  120 1   
   117  114  115 2   
   118  114  126 1   
   119  116  117 1   
   120  116  118 1   
   121  116  121 1   
   122  117  123 1   
   123  117  124 1   
   124  117  125 1   
   125  118  122 1   
   126  126  127 1   
   127  126  133 1   
   128  127  128 1   
   129  127  130 1   
   130  127  134 1   
   131  128  129 2   
   132  128  140 1   
   133  130  131 1   
   134  130  132 1   
   135  130  135 1   
   136  131  137 1   
   137  131  138 1   
   138  131  139 1   
   139  132  136 1   
   140  140  141 1   
   141  140  149 1   
   142  141  142 1   
   143  141  144 1   
   144  141  150 1   
   145  142  143 2   
   146  142  162 1   
   147  144  145 1   
   148  144  151 1   
   149  144  152 1   
   150  145  146 1   
   151  145  153 1   
   152  145  154 1   
   153  146  147 1   
   154  146  155 1   
   155  146  156 1   
   156  147  148 1   
   157  147  157 1   
   158  147  158 1   
   159  148  159 1   
   160  148  160 1   
   161  148  161 1   
   162  162  163 1   
   163  162  171 1   
   164  163  164 1   
   165  163  166 1   
   166  163  172 1   
   167  164  165 2   
   168  164  177 1   
   169  166  167 1   
   170  166  173 1   
   171  166  174 1   
   172  167  168 1   
   173  167  175 1   
   174  167  176 1   
   175  168  169 1   
   176  168  170 1   
   177  177  178 1   
   178  177  182 1   
   179  178  179 1   
   180  178  180 1   
   181  178  181 1   
   182  184  185 1   
   183  184  186 1   
   184  187  188 1   
   185  187  189 1   
   186  190  191 1   
   187  190  192 1   
@<TRIPOS>SUBSTRUCTURE
     1 MOL         1 TEMP              0 ****  ****    0 ROOT
