@<TRIPOS>MOLECULE
MOL
  178   175     1     0     0
SMALL
resp


@<TRIPOS>ATOM
      1 C1          4.4790   -2.2770    2.7850 c3        1 MOL     -0.394703
      2 C2          5.7860   -1.5020    2.7050 c         1 MOL      0.650036
      3 O1          5.7100   -0.2460    2.6440 o         1 MOL     -0.602693
      4 H1          4.3140   -2.6050    3.8120 hc        1 MOL      0.115618
      5 H2          3.6560   -1.6360    2.4720 hc        1 MOL      0.115618
      6 H3          4.5330   -3.1480    2.1310 hc        1 MOL      0.115618
      7 N1          6.9790   -2.1590    2.6890 n         1 MOL     -0.606701
      8 C3          8.3360   -1.4810    2.5930 c3        1 MOL      0.349399
      9 C4          8.6940   -1.0850    1.1560 c         1 MOL      0.487283
     10 O2          9.1600   -1.9560    0.3760 o         1 MOL     -0.496120
     11 C5          9.2770   -2.4080    3.2010 c3        1 MOL     -0.340838
     12 C6         10.7000   -1.7630    3.3990 c         1 MOL      0.669818
     13 O3         11.8070   -2.3650    3.0690 o         1 MOL     -0.712489
     14 O4         10.7680   -0.5750    3.8070 o         1 MOL     -0.712489
     15 H4          6.8090   -3.1410    2.8750 hn        1 MOL      0.293628
     16 H5          8.2590   -0.5820    3.2080 h1        1 MOL     -0.011641
     17 H6          9.4240   -3.2490    2.5160 hc        1 MOL      0.053156
     18 H7          8.9000   -2.8500    4.1240 hc        1 MOL      0.053156
     19 N2          8.5230    0.2040    0.8140 n         1 MOL     -0.450307
     20 C7          8.6930    0.6910   -0.6230 c3        1 MOL      0.255343
     21 C8          7.5830    0.1920   -1.5970 c         1 MOL      0.200335
     22 O5          7.8720   -0.2710   -2.7120 o         1 MOL     -0.460871
     23 C9          8.7450    2.2230   -0.7340 c3        1 MOL     -0.188438
     24 H8          8.2320    0.8890    1.5040 hn        1 MOL      0.269280
     25 H9          9.6750    0.3570   -0.9520 h1        1 MOL      0.064840
     26 H10         9.1840    2.5280   -1.6790 hc        1 MOL      0.043937
     27 H11         7.7580    2.6570   -0.5930 hc        1 MOL      0.043937
     28 H12         9.4230    2.6240    0.0160 hc        1 MOL      0.043937
     29 N3          6.3300    0.1850   -1.0760 n         1 MOL     -0.216719
     30 C10         5.1280   -0.4210   -1.6970 c3        1 MOL      0.001195
     31 C11         4.7790    0.1260   -3.0880 c         1 MOL      0.342055
     32 O6          4.3710   -0.5700   -4.0300 o         1 MOL     -0.439946
     33 C12         5.2130   -1.9520   -1.6270 c3        1 MOL      0.184763
     34 C13         3.8760   -2.7220   -1.8380 c         1 MOL      0.509840
     35 O7          3.9370   -3.9340   -2.1400 o         1 MOL     -0.698945
     36 O8          2.7360   -2.2380   -1.5130 o         1 MOL     -0.698945
     37 H13         6.2070    0.4770   -0.1150 hn        1 MOL      0.218782
     38 H14         4.3710   -0.0650   -0.9940 h1        1 MOL      0.049714
     39 H15         5.5390   -2.2100   -0.6190 hc        1 MOL     -0.014520
     40 H16         5.9850   -2.3140   -2.2960 hc        1 MOL     -0.014520
     41 N4          5.0290    1.4560   -3.2630 n         1 MOL     -0.183498
     42 C14         4.7900    2.1800   -4.5250 c3        1 MOL     -0.110740
     43 C15         3.4500    2.8460   -4.7050 c         1 MOL      0.520963
     44 O9          2.9030    3.0660   -5.8040 o         1 MOL     -0.576019
     45 H17         5.3910    2.0550   -2.5270 hn        1 MOL      0.207476
     46 H18         4.9100    1.5050   -5.3710 h1        1 MOL      0.079127
     47 H19         5.5370    2.9520   -4.6620 h1        1 MOL      0.079127
     48 N5          2.8640    3.1150   -3.5870 n         1 MOL     -0.368737
     49 C16         1.5960    3.7690   -3.4690 c3        1 MOL      0.179717
     50 C17         1.5460    4.7680   -2.2970 c         1 MOL      0.427721
     51 O10         2.0950    4.4550   -1.1980 o         1 MOL     -0.488306
     52 C18         0.5710    2.6270   -3.3830 c3        1 MOL     -0.295471
     53 C19        -0.7780    3.1430   -3.6200 c         1 MOL      0.759310
     54 N6         -1.6660    2.1980   -3.6210 n         1 MOL     -0.821579
     55 O11        -1.1110    4.3310   -3.8340 o         1 MOL     -0.630231
     56 H20         3.3620    2.9750   -2.7320 hn        1 MOL      0.192978
     57 H21         1.4330    4.4130   -4.3340 h1        1 MOL      0.006925
     58 H22         0.5450    2.2070   -2.3710 hc        1 MOL      0.139638
     59 H23         0.7790    1.9610   -4.2100 hc        1 MOL      0.139638
     60 H24        -1.4180    1.2190   -3.5320 hn        1 MOL      0.361393
     61 H25        -2.5990    2.4160   -3.9280 hn        1 MOL      0.361393
     62 N7          0.7770    5.8830   -2.4340 n         1 MOL     -0.446094
     63 C20         0.5600    6.6460   -1.2450 c3        1 MOL      0.034296
     64 C21        -0.6080    6.2130   -0.3620 c         1 MOL      0.609705
     65 O12        -1.3930    5.3360   -0.8380 o         1 MOL     -0.464278
     66 H26         0.4430    6.1750   -3.3500 hn        1 MOL      0.342602
     67 H27         0.5760    7.7150   -1.4590 h1        1 MOL      0.032468
     68 H28         1.4300    6.5320   -0.5950 h1        1 MOL      0.032468
     69 N8         -0.7690    6.7100    0.8550 n         1 MOL     -0.613950
     70 C22        -2.0840    6.6230    1.5840 c3        1 MOL     -0.259792
     71 C23        -2.2970    5.2640    2.2250 c         1 MOL      0.538273
     72 O13        -3.3130    4.9660    2.8270 o         1 MOL     -0.546858
     73 C24        -2.2340    7.7730    2.6100 c3        1 MOL      0.547251
     74 C25        -1.4260    7.6740    3.8780 c3        1 MOL     -0.390128
     75 O14        -2.0450    9.1650    2.0860 oh        1 MOL     -0.626590
     76 H29         0.0320    7.1690    1.2500 hn        1 MOL      0.325890
     77 H30        -2.9280    6.6920    0.8970 h1        1 MOL      0.167009
     78 H31        -3.2630    7.6220    2.9200 h1        1 MOL      0.002315
     79 H32        -1.1130    9.1640    1.8600 ho        1 MOL      0.365897
     80 H33        -1.4970    8.6140    4.4230 hc        1 MOL      0.093124
     81 H34        -1.7880    6.9600    4.6060 hc        1 MOL      0.093124
     82 H35        -0.4130    7.3860    3.6110 hc        1 MOL      0.093124
     83 N9         -1.3060    4.3230    2.0860 n         1 MOL     -0.304748
     84 C26        -1.2310    2.9830    2.6970 c3        1 MOL     -0.054471
     85 C27        -1.1080    1.9790    1.5330 c         1 MOL      0.312077
     86 O15        -0.1030    1.9670    0.8600 o         1 MOL     -0.412413
     87 C28        -0.2560    2.9680    3.7730 c3        1 MOL      0.137723
     88 C29        -0.6300    3.8500    4.9970 c3        1 MOL     -0.115389
     89 C30         0.2070    1.5600    4.2570 c3        1 MOL     -0.148836
     90 C31        -1.8410    3.3400    5.7800 c3        1 MOL     -0.032100
     91 H36        -0.4390    4.6030    1.6520 hn        1 MOL      0.273516
     92 H37        -2.1920    2.8120    3.1830 h1        1 MOL      0.099215
     93 H38         0.6860    3.3910    3.4270 hc        1 MOL     -0.013555
     94 H39        -0.8620    4.8490    4.6280 hc        1 MOL      0.034535
     95 H40         0.2380    3.9320    5.6510 hc        1 MOL      0.034535
     96 H41        -0.6820    0.9460    4.2400 hc        1 MOL      0.058635
     97 H42         0.8780    1.1140    3.5210 hc        1 MOL      0.058635
     98 H43         0.7440    1.5780    5.2130 hc        1 MOL      0.058635
     99 H44        -2.7750    3.2460    5.2340 hc        1 MOL      0.007302
    100 H45        -1.6190    2.3930    6.2690 hc        1 MOL      0.007302
    101 H46        -2.0230    4.0560    6.5830 hc        1 MOL      0.007302
    102 N10        -2.1020    1.0560    1.3840 n         1 MOL     -0.293543
    103 C32        -1.9470   -0.0790    0.3700 c3        1 MOL      0.153588
    104 C33        -3.2930   -0.5100   -0.2090 c         1 MOL      0.446603
    105 O16        -3.5260   -1.6930   -0.2750 o         1 MOL     -0.434287
    106 C34        -1.1720   -1.2050    1.1290 c3        1 MOL     -0.108486
    107 C35        -0.4380   -2.2510    0.3050 c         1 MOL      0.676778
    108 O17        -0.2430   -2.1020   -0.9040 o         1 MOL     -0.706448
    109 O18         0.0200   -3.2350    0.9390 o         1 MOL     -0.706448
    110 H47        -2.9620    1.1030    1.9030 hn        1 MOL      0.230483
    111 H48        -1.3450    0.2310   -0.4840 h1        1 MOL      0.033920
    112 H49        -1.9800   -1.6160    1.7510 hc        1 MOL      0.002675
    113 H50        -0.4620   -0.7310    1.8080 hc        1 MOL      0.002675
    114 N11        -4.2540    0.4200   -0.3500 n         1 MOL     -0.444026
    115 C36        -5.7370    0.2370   -0.6360 c3        1 MOL      0.165874
    116 C37        -6.3660   -0.8870    0.2030 c         1 MOL      0.461775
    117 O19        -6.3870   -0.8350    1.4180 o         1 MOL     -0.588952
    118 C38        -6.5030    1.5690   -0.4170 c3        1 MOL     -0.188829
    119 C39        -7.8570    1.3760   -1.1250 ca        1 MOL      0.023803
    120 C40        -8.0990    1.6350   -2.5320 ca        1 MOL     -0.165996
    121 C41        -8.9310    0.8030   -0.3710 ca        1 MOL     -0.165996
    122 C42        -9.2830    1.1650   -3.1980 ca        1 MOL     -0.114000
    123 C43       -10.0980    0.3220   -1.0460 ca        1 MOL     -0.114000
    124 C44       -10.2190    0.4520   -2.4450 ca        1 MOL     -0.081998
    125 H51        -3.9760    1.3560   -0.1120 hn        1 MOL      0.222171
    126 H52        -5.8030    0.0240   -1.6960 h1        1 MOL      0.009209
    127 H53        -5.9180    2.3550   -0.8980 hc        1 MOL      0.107524
    128 H54        -6.6410    1.8660    0.6260 hc        1 MOL      0.107524
    129 H55        -7.2730    2.1060   -3.0550 ha        1 MOL      0.131725
    130 H56        -8.8140    0.6840    0.7020 ha        1 MOL      0.131725
    131 H57        -9.3560    1.3430   -4.2630 ha        1 MOL      0.114142
    132 H58       -10.8720   -0.1510   -0.4610 ha        1 MOL      0.114142
    133 H59       -11.1780    0.2060   -2.8560 ha        1 MOL      0.089090
    134 N12        -6.8900   -1.9050   -0.4560 n         1 MOL      0.017995
    135 C45        -7.6030   -3.0170    0.3040 c3        1 MOL      0.077779
    136 C46        -6.6280   -3.9220    1.1340 c         1 MOL      0.303023
    137 O20        -7.0880   -4.3900    2.1410 o         1 MOL     -0.472151
    138 C47        -8.4860   -3.7680   -0.7500 c3        1 MOL     -0.174143
    139 C48        -7.7210   -3.4190   -2.0020 c3        1 MOL     -0.057295
    140 C49        -7.1820   -2.0250   -1.9000 c3        1 MOL     -0.182827
    141 H60        -8.2710   -2.5450    1.0220 h1        1 MOL      0.052594
    142 H61        -8.6220   -4.8100   -0.4860 hc        1 MOL      0.073435
    143 H62        -9.4780   -3.3480   -0.6220 hc        1 MOL      0.073435
    144 H63        -6.8210   -4.0400   -1.9570 hc        1 MOL      0.047368
    145 H64        -8.1660   -3.6420   -2.9730 hc        1 MOL      0.047368
    146 H65        -6.2750   -2.0190   -2.5060 h1        1 MOL      0.082364
    147 H66        -7.9330   -1.2720   -2.1240 h1        1 MOL      0.082364
    148 N13        -5.3840   -4.1040    0.7690 n         1 MOL     -0.020898
    149 C50        -4.4140   -4.8080    1.5820 c3        1 MOL     -0.678209
    150 C51        -4.3620   -4.3600    3.0000 c         1 MOL      0.565944
    151 O21        -4.3820   -5.1780    3.9590 o         1 MOL     -0.527117
    152 C52        -3.0810   -4.8210    0.9520 c3        1 MOL      0.391359
    153 C53        -3.0200   -5.5800   -0.4240 c3        1 MOL     -0.213681
    154 C54        -1.6100   -5.4750   -0.9850 c         1 MOL      0.746397
    155 O22        -0.6700   -6.0270   -0.4470 o         1 MOL     -0.792454
    156 O23        -1.4110   -4.8150   -2.0380 o         1 MOL     -0.792454
    157 H67        -5.0770   -3.4400    0.0780 hn        1 MOL      0.165348
    158 H68        -4.7840   -5.8250    1.6660 h1        1 MOL      0.229022
    159 H69        -2.3790   -5.3240    1.6120 hc        1 MOL     -0.015124
    160 H70        -2.6160   -3.8370    0.8520 hc        1 MOL     -0.015124
    161 H71        -3.7560   -5.1050   -1.0670 hc        1 MOL      0.026205
    162 H72        -3.2080   -6.6270   -0.2140 hc        1 MOL      0.026205
    163 N14        -4.3750   -3.0050    3.3000 n         1 MOL     -0.225417
    164 C55        -4.2970   -2.4300    4.6660 c3        1 MOL     -0.224817
    165 H73        -3.6750   -3.0690    5.2930 h1        1 MOL      0.091297
    166 H74        -3.8610   -1.4330    4.6170 h1        1 MOL      0.091297
    167 H75        -5.2980   -2.3680    5.0920 h1        1 MOL      0.091297
    168 H76        -4.1440   -2.4520    2.4820 hn        1 MOL      0.276952
    169 Ca1         1.1080   -4.2690   -1.3370 Ca        1 MOL      1.740297
    170 O24         2.3380   -6.5820   -1.7040 oh        1 MOL     -0.815145
    171 H77         3.1550   -7.0620   -1.8150 ho        1 MOL      0.406067
    172 H78         1.7030   -7.0590   -2.2460 ho        1 MOL      0.406067
    173 O25         2.8090   -4.7710    0.7970 oh        1 MOL     -0.815145
    174 H79         3.6360   -5.1070    0.4700 ho        1 MOL      0.406067
    175 H80         2.7120   -5.1600    1.6680 ho        1 MOL      0.406067
    176 O26         1.1930   -4.4110   -3.8870 oh        1 MOL     -0.815145
    177 H81         1.6840   -4.7560   -4.6400 ho        1 MOL      0.406067
    178 H82         0.5450   -3.8200   -4.2830 ho        1 MOL      0.406067
@<TRIPOS>BOND
     1    1    2 1   
     2    1    4 1   
     3    1    5 1   
     4    1    6 1   
     5    2    3 2   
     6    2    7 1   
     7    7    8 1   
     8    7   15 1   
     9    8    9 1   
    10    8   11 1   
    11    8   16 1   
    12    9   10 2   
    13    9   19 1   
    14   11   12 1   
    15   11   17 1   
    16   11   18 1   
    17   12   13 1   
    18   12   14 1   
    19   19   20 1   
    20   19   24 1   
    21   20   21 1   
    22   20   23 1   
    23   20   25 1   
    24   21   22 2   
    25   21   29 1   
    26   23   26 1   
    27   23   27 1   
    28   23   28 1   
    29   29   30 1   
    30   29   37 1   
    31   30   31 1   
    32   30   33 1   
    33   30   38 1   
    34   31   32 2   
    35   31   41 1   
    36   33   34 1   
    37   33   39 1   
    38   33   40 1   
    39   34   35 1   
    40   34   36 1   
    41   41   42 1   
    42   41   45 1   
    43   42   43 1   
    44   42   46 1   
    45   42   47 1   
    46   43   44 2   
    47   43   48 1   
    48   48   49 1   
    49   48   56 1   
    50   49   50 1   
    51   49   52 1   
    52   49   57 1   
    53   50   51 2   
    54   50   62 1   
    55   52   53 1   
    56   52   58 1   
    57   52   59 1   
    58   53   54 1   
    59   53   55 2   
    60   54   60 1   
    61   54   61 1   
    62   62   63 1   
    63   62   66 1   
    64   63   64 1   
    65   63   67 1   
    66   63   68 1   
    67   64   65 2   
    68   64   69 1   
    69   69   70 1   
    70   69   76 1   
    71   70   71 1   
    72   70   73 1   
    73   70   77 1   
    74   71   72 2   
    75   71   83 1   
    76   73   74 1   
    77   73   75 1   
    78   73   78 1   
    79   74   80 1   
    80   74   81 1   
    81   74   82 1   
    82   75   79 1   
    83   83   84 1   
    84   83   91 1   
    85   84   85 1   
    86   84   87 1   
    87   84   92 1   
    88   85   86 2   
    89   85  102 1   
    90   87   88 1   
    91   87   89 1   
    92   87   93 1   
    93   88   90 1   
    94   88   94 1   
    95   88   95 1   
    96   89   96 1   
    97   89   97 1   
    98   89   98 1   
    99   90   99 1   
   100   90  100 1   
   101   90  101 1   
   102  102  103 1   
   103  102  110 1   
   104  103  104 1   
   105  103  106 1   
   106  103  111 1   
   107  104  105 2   
   108  104  114 1   
   109  106  107 1   
   110  106  112 1   
   111  106  113 1   
   112  107  108 1   
   113  107  109 1   
   114  114  115 1   
   115  114  125 1   
   116  115  116 1   
   117  115  118 1   
   118  115  126 1   
   119  116  117 2   
   120  116  134 1   
   121  118  119 1   
   122  118  127 1   
   123  118  128 1   
   124  119  120 ar  
   125  119  121 ar  
   126  120  122 ar  
   127  120  129 1   
   128  121  123 ar  
   129  121  130 1   
   130  122  124 ar  
   131  122  131 1   
   132  123  124 ar  
   133  123  132 1   
   134  124  133 1   
   135  134  135 1   
   136  134  140 1   
   137  135  136 1   
   138  135  138 1   
   139  135  141 1   
   140  136  137 2   
   141  136  148 1   
   142  138  139 1   
   143  138  142 1   
   144  138  143 1   
   145  139  140 1   
   146  139  144 1   
   147  139  145 1   
   148  140  146 1   
   149  140  147 1   
   150  148  149 1   
   151  148  157 1   
   152  149  150 1   
   153  149  152 1   
   154  149  158 1   
   155  150  151 2   
   156  150  163 1   
   157  152  153 1   
   158  152  159 1   
   159  152  160 1   
   160  153  154 1   
   161  153  161 1   
   162  153  162 1   
   163  154  155 1   
   164  154  156 1   
   165  163  164 1   
   166  163  168 1   
   167  164  165 1   
   168  164  166 1   
   169  164  167 1   
   170  170  171 1   
   171  170  172 1   
   172  173  174 1   
   173  173  175 1   
   174  176  177 1   
   175  176  178 1   
@<TRIPOS>SUBSTRUCTURE
     1 MOL         1 TEMP              0 ****  ****    0 ROOT
