@<TRIPOS>MOLECULE
MOL
  191   184     1     0     0
SMALL
resp


@<TRIPOS>ATOM
      1 C1          1.2000    1.3890    2.5700 c3        1 MOL     -0.538838
      2 C2          2.4770    1.4110    1.6620 c         1 MOL      0.753017
      3 O1          2.4780    2.0270    0.6500 o         1 MOL     -0.586216
      4 H1          1.4420    0.9210    3.5250 hc        1 MOL      0.140812
      5 H2          0.8570    2.4090    2.7400 hc        1 MOL      0.140812
      6 H3          0.4120    0.8190    2.0760 hc        1 MOL      0.140812
      7 N1          3.5410    0.7290    2.0360 n         1 MOL     -0.555456
      8 C3          4.8070    0.7410    1.2900 c3        1 MOL      0.164114
      9 C4          5.4400   -0.5940    1.1860 c         1 MOL      0.572328
     10 O2          6.3260   -0.7470    0.3210 o         1 MOL     -0.416801
     11 C5          5.7450    1.8450    1.8380 c3        1 MOL     -0.232323
     12 C6          6.1160    1.7230    3.3220 c         1 MOL      0.743036
     13 O3          6.9620    2.5140    3.7810 o         1 MOL     -0.707141
     14 O4          5.5520    0.9140    4.0680 o         1 MOL     -0.707141
     15 H4          3.4670    0.1210    2.8410 hn        1 MOL      0.260632
     16 H5          4.5690    1.1170    0.2920 h1        1 MOL      0.013176
     17 H6          5.2640    2.8100    1.7190 hc        1 MOL      0.073015
     18 H7          6.6490    1.6170    1.2820 hc        1 MOL      0.073015
     19 N2          5.0990   -1.5730    2.0460 n         1 MOL     -0.703559
     20 C7          5.6420   -2.9730    2.1270 c3        1 MOL      0.052854
     21 C8          5.8970   -3.6920    0.8020 c         1 MOL      0.381362
     22 O5          6.7600   -4.5620    0.7030 o         1 MOL     -0.518326
     23 C9          6.8080   -3.1130    3.0980 c3        1 MOL      0.061905
     24 C10         6.3690   -2.7350    4.5320 c3        1 MOL      0.100345
     25 C11         7.5410   -2.4050    5.4470 c3        1 MOL     -0.283217
     26 C12         8.1270   -1.0500    4.9720 c3        1 MOL      0.021219
     27 N3          7.6320    0.0710    5.8440 n4        1 MOL     -0.215111
     28 H8          4.6790   -1.3700    2.9440 hn        1 MOL      0.399126
     29 H9          4.8600   -3.5770    2.5810 h1        1 MOL      0.096172
     30 H10         7.5480   -2.3710    2.7950 hc        1 MOL      0.016969
     31 H11         7.3180   -4.0740    2.9810 hc        1 MOL      0.016969
     32 H12         5.7270   -3.5470    4.8750 hc        1 MOL     -0.017927
     33 H13         5.7460   -1.8460    4.4210 hc        1 MOL     -0.017927
     34 H14         8.3310   -3.1550    5.4160 hc        1 MOL      0.103690
     35 H15         7.2340   -2.4110    6.4940 hc        1 MOL      0.103690
     36 H16         7.8370   -0.8350    3.9380 hx        1 MOL      0.088673
     37 H17         9.2140   -0.9800    4.9680 hx        1 MOL      0.088673
     38 H18         6.6680    0.2980    5.6340 hn        1 MOL      0.267090
     39 H19         7.6320   -0.2260    6.8100 hn        1 MOL      0.267090
     40 H20         8.1690    0.9260    5.8720 hn        1 MOL      0.267090
     41 N4          5.0950   -3.4370   -0.2240 n         1 MOL     -0.076293
     42 C13         5.2440   -4.0110   -1.4660 c3        1 MOL     -0.054605
     43 C14         5.1460   -2.9150   -2.5500 c         1 MOL      0.630460
     44 O6          4.4730   -3.0490   -3.6190 o         1 MOL     -0.630334
     45 C15         4.2270   -5.1090   -1.7180 c3        1 MOL     -0.152365
     46 C16         2.8340   -4.8690   -1.3950 c         1 MOL      0.550065
     47 O7          1.9600   -5.8380   -1.6290 o         1 MOL     -0.707809
     48 O8          2.3560   -3.8780   -0.8380 o         1 MOL     -0.707809
     49 H21         4.3880   -2.7450   -0.0310 hn        1 MOL      0.189648
     50 H22         6.2330   -4.4600   -1.5770 h1        1 MOL      0.068582
     51 H23         4.4800   -6.0360   -1.1980 hc        1 MOL      0.090989
     52 H24         4.3730   -5.5050   -2.7250 hc        1 MOL      0.090989
     53 N5          5.8830   -1.8490   -2.2860 n         1 MOL     -0.317269
     54 C17         5.7930   -0.5110   -2.9420 c3        1 MOL     -0.240552
     55 C18         6.8080    0.5030   -2.3590 c         1 MOL      0.527110
     56 O9          7.9750    0.1140   -2.0910 o         1 MOL     -0.523661
     57 H25         6.3760   -1.8130   -1.4080 hn        1 MOL      0.197080
     58 H26         4.7570   -0.1850   -2.8840 h1        1 MOL      0.127433
     59 H27         6.1620   -0.6800   -3.9560 h1        1 MOL      0.127433
     60 N6          6.5970    1.7790   -2.0160 n         1 MOL     -0.529771
     61 C19         5.2950    2.5410   -2.0930 c3        1 MOL      0.234690
     62 C20         5.2350    3.7750   -1.0910 c         1 MOL      0.697673
     63 O10         6.2830    4.1030   -0.5600 o         1 MOL     -0.577578
     64 C21         5.1440    3.0430   -3.5030 c3        1 MOL     -0.261073
     65 C22         6.0000    4.2000   -3.9610 c         1 MOL      0.593573
     66 N7          7.1590    3.8660   -4.4660 n         1 MOL     -0.732706
     67 O11         5.7800    5.4080   -3.7040 o         1 MOL     -0.537141
     68 H28         7.3480    2.1660   -1.4620 hn        1 MOL      0.322239
     69 H29         4.4970    1.8460   -1.8500 h1        1 MOL      0.073975
     70 H30         4.1030    3.2280   -3.7610 hc        1 MOL      0.051043
     71 H31         5.4020    2.1980   -4.1340 hc        1 MOL      0.051043
     72 H32         7.4100    2.8940   -4.5670 hn        1 MOL      0.363975
     73 H33         7.7480    4.6100   -4.8060 hn        1 MOL      0.363975
     74 N8          4.1290    4.4860   -0.8690 n         1 MOL     -0.493105
     75 C23         2.8530    4.2580   -1.5300 c3        1 MOL      0.017199
     76 C24         1.5960    4.9980   -0.8990 c         1 MOL      0.786987
     77 O12         1.7020    6.1080   -0.4030 o         1 MOL     -0.556163
     78 H34         4.1700    5.1990   -0.1610 hn        1 MOL      0.307595
     79 H35         2.6850    3.1870   -1.5010 h1        1 MOL     -0.002395
     80 H36         2.8800    4.6660   -2.5440 h1        1 MOL     -0.002395
     81 N9          0.4460    4.3660   -1.0590 n         1 MOL     -0.725154
     82 C25        -0.8170    4.8770   -0.5360 c3        1 MOL      0.201419
     83 C26        -1.7790    3.8150    0.0650 c         1 MOL      0.617371
     84 O13        -1.4760    2.6020   -0.0270 o         1 MOL     -0.546578
     85 C27        -1.3830    5.7100   -1.7470 c3        1 MOL     -0.161117
     86 C28        -2.4830    6.6450   -1.2720 ca        1 MOL      0.017257
     87 C29        -3.8180    6.5850   -1.6780 ca        1 MOL     -0.135689
     88 C30        -2.0540    7.6290   -0.3470 ca        1 MOL     -0.135689
     89 C31        -4.8000    7.4080   -1.1880 ca        1 MOL     -0.242053
     90 C32        -3.0220    8.4930    0.1830 ca        1 MOL     -0.242053
     91 C33        -4.4270    8.2690   -0.1880 ca        1 MOL      0.344095
     92 O14        -5.4160    9.0510    0.3330 oh        1 MOL     -0.492973
     93 H37         0.3570    3.5850   -1.6940 hn        1 MOL      0.341504
     94 H38        -0.4970    5.5210    0.2790 h1        1 MOL      0.047631
     95 H39        -1.6690    5.0740   -2.5820 hc        1 MOL      0.081311
     96 H40        -0.6260    6.3500   -2.1880 hc        1 MOL      0.081311
     97 H41        -4.1420    5.8760   -2.4240 ha        1 MOL      0.139049
     98 H42        -0.9900    7.8440   -0.2480 ha        1 MOL      0.139049
     99 H43        -5.8320    7.2940   -1.4980 ha        1 MOL      0.149261
    100 H44        -2.7130    9.2410    0.9000 ha        1 MOL      0.149261
    101 H45        -5.1560    9.3710    1.1940 ho        1 MOL      0.354839
    102 N10        -2.8940    4.2270    0.5990 n         1 MOL     -0.504676
    103 C34        -3.9090    3.4600    1.2550 c3        1 MOL      0.011354
    104 C35        -4.9970    2.9950    0.2850 c         1 MOL      0.617289
    105 O15        -5.0520    3.4520   -0.8320 o         1 MOL     -0.536228
    106 C36        -4.4170    4.2240    2.4860 c3        1 MOL      0.307236
    107 C37        -5.2280    5.4430    2.0630 c3        1 MOL     -0.108398
    108 C38        -5.2140    3.2630    3.3990 c3        1 MOL     -0.247539
    109 C39        -5.5470    6.4710    3.1620 c3        1 MOL     -0.210243
    110 H46        -3.1280    5.2050    0.4840 hn        1 MOL      0.167663
    111 H47        -3.5510    2.5090    1.6390 h1        1 MOL      0.050008
    112 H48        -3.5310    4.5120    3.0480 hc        1 MOL     -0.008436
    113 H49        -6.1210    5.0050    1.6100 hc        1 MOL      0.042882
    114 H50        -4.7030    6.0070    1.2870 hc        1 MOL      0.042882
    115 H51        -4.6910    2.3790    3.7710 hc        1 MOL      0.057870
    116 H52        -5.3500    3.8450    4.3180 hc        1 MOL      0.057870
    117 H53        -6.1940    3.0370    2.9880 hc        1 MOL      0.057870
    118 H54        -4.5590    6.7690    3.5140 hc        1 MOL      0.058682
    119 H55        -6.2780    7.2460    2.8940 hc        1 MOL      0.058682
    120 H56        -6.0280    5.9740    4.0020 hc        1 MOL      0.058682
    121 N11        -5.7120    1.9300    0.6170 n         1 MOL     -0.478521
    122 C40        -6.6220    1.2630   -0.3760 c3        1 MOL      0.023330
    123 C41        -5.9710    0.0390   -1.0590 c         1 MOL      0.629854
    124 O16        -5.2070   -0.6770   -0.4410 o         1 MOL     -0.460514
    125 C42        -7.8360    0.7740    0.4230 c3        1 MOL      0.000755
    126 O17        -7.4890   -0.2450    1.4180 oh        1 MOL     -0.529400
    127 H57        -5.6150    1.6000    1.5730 hn        1 MOL      0.290061
    128 H58        -6.9350    1.9060   -1.2040 h1        1 MOL      0.078018
    129 H59        -8.5130    0.2950   -0.2880 h1        1 MOL      0.059703
    130 H60        -8.3510    1.6240    0.8540 h1        1 MOL      0.059703
    131 H61        -8.2360   -0.7960    1.6450 ho        1 MOL      0.417520
    132 N12        -6.2640   -0.2620   -2.3200 n         1 MOL     -0.547014
    133 C43        -5.8670   -1.4820   -3.0340 c3        1 MOL      0.259363
    134 C44        -6.2920   -2.7840   -2.2950 c         1 MOL      0.429074
    135 O18        -5.5970   -3.8520   -2.4020 o         1 MOL     -0.497742
    136 C45        -4.3560   -1.4480   -3.4660 c3        1 MOL     -0.332241
    137 H62        -6.8560    0.4140   -2.7780 hn        1 MOL      0.283553
    138 H63        -6.4430   -1.5190   -3.9560 h1        1 MOL      0.050678
    139 H64        -3.6580   -1.4900   -2.6330 hc        1 MOL      0.097017
    140 H65        -4.1830   -2.3360   -4.0790 hc        1 MOL      0.097017
    141 H66        -4.0170   -0.5640   -3.9980 hc        1 MOL      0.097017
    142 N13        -7.4420   -2.7810   -1.6070 n         1 MOL     -0.458176
    143 C46        -7.8580   -3.8270   -0.6810 c3        1 MOL      0.258401
    144 C47        -6.6810   -4.2740    0.1980 c         1 MOL      0.467547
    145 O19        -6.4020   -5.4520    0.3870 o         1 MOL     -0.504263
    146 C48        -8.4780   -4.9460   -1.4850 c3        1 MOL     -0.485369
    147 H67        -8.0760   -1.9900   -1.6770 hn        1 MOL      0.267187
    148 H68        -8.6030   -3.4920    0.0340 h1        1 MOL      0.034775
    149 H69        -9.4700   -4.7880   -1.9160 hc        1 MOL      0.140406
    150 H70        -7.8570   -5.1690   -2.3470 hc        1 MOL      0.140406
    151 H71        -8.5900   -5.8430   -0.8700 hc        1 MOL      0.140406
    152 N14        -6.0590   -3.3490    0.9830 n         1 MOL     -0.312482
    153 C49        -4.9400   -3.5730    1.8760 c3        1 MOL      0.020548
    154 C50        -5.3490   -3.5280    3.4050 c         1 MOL      0.499823
    155 O20        -4.8590   -4.3330    4.1850 o         1 MOL     -0.484079
    156 C51        -3.7930   -2.6850    1.4620 c3        1 MOL      0.179999
    157 C52        -2.4030   -2.9910    2.0730 c3        1 MOL     -0.410847
    158 C53        -1.7660   -4.2440    1.4760 c         1 MOL      0.825050
    159 O21        -0.8470   -4.0690    0.6450 o         1 MOL     -0.718948
    160 O22        -2.0840   -5.3700    1.8790 o         1 MOL     -0.718948
    161 H72        -6.1350   -2.4030    0.6360 hn        1 MOL      0.044325
    162 H73        -4.5480   -4.5830    1.7590 h1        1 MOL      0.102531
    163 H74        -3.9710   -1.6320    1.6850 hc        1 MOL     -0.033755
    164 H75        -3.6710   -2.8610    0.3840 hc        1 MOL     -0.033755
    165 H76        -2.4850   -3.0860    3.1470 hc        1 MOL      0.085592
    166 H77        -1.7380   -2.1610    1.8410 hc        1 MOL      0.085592
    167 N15        -6.3200   -2.6650    3.7040 n         1 MOL     -0.316865
    168 C54        -6.9510   -2.5940    5.0420 c3        1 MOL     -0.134016
    169 H78        -6.1800   -2.4490    5.7990 h1        1 MOL      0.082340
    170 H79        -7.6490   -1.7570    5.0710 h1        1 MOL      0.082340
    171 H80        -7.4870   -3.5210    5.2410 h1        1 MOL      0.082340
    172 H81        -6.7690   -2.2330    2.9170 hn        1 MOL      0.186420
    173 Ca1        -0.2720   -4.1130   -1.7460 Ca        1 MOL      1.669229
    174 O23        -0.1460   -1.3370   -1.3250 oh        1 MOL     -0.800790
    175 H82        -0.9620   -0.8490   -1.2040 ho        1 MOL      0.397485
    176 H83         0.5160   -0.6750   -1.4910 ho        1 MOL      0.397485
    177 O24        -0.4620   -5.8820   -3.7240 oh        1 MOL     -0.800790
    178 H84        -0.2320   -5.6640   -4.6280 ho        1 MOL      0.397485
    179 H85        -0.5800   -6.8280   -3.7170 ho        1 MOL      0.397485
    180 O25         1.6840   -3.1980   -3.4740 oh        1 MOL     -0.800790
    181 H86         1.4850   -2.5460   -4.1410 ho        1 MOL      0.397485
    182 H87         2.6380   -3.2080   -3.4170 ho        1 MOL      0.397485
    183 O26        -1.3120   -2.9840   -3.9490 oh        1 MOL     -0.800790
    184 H88        -1.1660   -2.0510   -4.0760 ho        1 MOL      0.397485
    185 H89        -1.7640   -3.2760   -4.7410 ho        1 MOL      0.397485
    186 O27        -2.9620   -4.2280   -1.8870 oh        1 MOL     -0.800790
    187 H90        -3.3200   -4.9660   -1.3880 ho        1 MOL      0.397485
    188 H91        -3.7190   -3.7060   -2.1230 ho        1 MOL      0.397485
    189 O28        -1.5470   -6.7410   -0.6120 oh        1 MOL     -0.800790
    190 H92        -2.4550   -6.9950   -0.7850 ho        1 MOL      0.397485
    191 H93        -1.5970   -6.1800    0.1600 ho        1 MOL      0.397485
@<TRIPOS>BOND
     1    1    2 1   
     2    1    4 1   
     3    1    5 1   
     4    1    6 1   
     5    2    3 2   
     6    2    7 1   
     7    7    8 1   
     8    7   15 1   
     9    8    9 1   
    10    8   11 1   
    11    8   16 1   
    12    9   10 2   
    13    9   19 1   
    14   11   12 1   
    15   11   17 1   
    16   11   18 1   
    17   12   13 1   
    18   12   14 1   
    19   19   20 1   
    20   19   28 1   
    21   20   21 1   
    22   20   23 1   
    23   20   29 1   
    24   21   22 2   
    25   21   41 1   
    26   23   24 1   
    27   23   30 1   
    28   23   31 1   
    29   24   25 1   
    30   24   32 1   
    31   24   33 1   
    32   25   26 1   
    33   25   34 1   
    34   25   35 1   
    35   26   27 1   
    36   26   36 1   
    37   26   37 1   
    38   27   38 1   
    39   27   39 1   
    40   27   40 1   
    41   41   42 1   
    42   41   49 1   
    43   42   43 1   
    44   42   45 1   
    45   42   50 1   
    46   43   44 2   
    47   43   53 1   
    48   45   46 1   
    49   45   51 1   
    50   45   52 1   
    51   46   47 1   
    52   46   48 1   
    53   53   54 1   
    54   53   57 1   
    55   54   55 1   
    56   54   58 1   
    57   54   59 1   
    58   55   56 2   
    59   55   60 1   
    60   60   61 1   
    61   60   68 1   
    62   61   62 1   
    63   61   64 1   
    64   61   69 1   
    65   62   63 2   
    66   62   74 1   
    67   64   65 1   
    68   64   70 1   
    69   64   71 1   
    70   65   66 1   
    71   65   67 2   
    72   66   72 1   
    73   66   73 1   
    74   74   75 1   
    75   74   78 1   
    76   75   76 1   
    77   75   79 1   
    78   75   80 1   
    79   76   77 2   
    80   76   81 1   
    81   81   82 1   
    82   81   93 1   
    83   82   83 1   
    84   82   85 1   
    85   82   94 1   
    86   83   84 2   
    87   83  102 1   
    88   85   86 1   
    89   85   95 1   
    90   85   96 1   
    91   86   87 ar  
    92   86   88 ar  
    93   87   89 ar  
    94   87   97 1   
    95   88   90 ar  
    96   88   98 1   
    97   89   91 ar  
    98   89   99 1   
    99   90   91 ar  
   100   90  100 1   
   101   91   92 1   
   102   92  101 1   
   103  102  103 1   
   104  102  110 1   
   105  103  104 1   
   106  103  106 1   
   107  103  111 1   
   108  104  105 2   
   109  104  121 1   
   110  106  107 1   
   111  106  108 1   
   112  106  112 1   
   113  107  109 1   
   114  107  113 1   
   115  107  114 1   
   116  108  115 1   
   117  108  116 1   
   118  108  117 1   
   119  109  118 1   
   120  109  119 1   
   121  109  120 1   
   122  121  122 1   
   123  121  127 1   
   124  122  123 1   
   125  122  125 1   
   126  122  128 1   
   127  123  124 2   
   128  123  132 1   
   129  125  126 1   
   130  125  129 1   
   131  125  130 1   
   132  126  131 1   
   133  132  133 1   
   134  132  137 1   
   135  133  134 1   
   136  133  136 1   
   137  133  138 1   
   138  134  135 2   
   139  134  142 1   
   140  136  139 1   
   141  136  140 1   
   142  136  141 1   
   143  142  143 1   
   144  142  147 1   
   145  143  144 1   
   146  143  146 1   
   147  143  148 1   
   148  144  145 2   
   149  144  152 1   
   150  146  149 1   
   151  146  150 1   
   152  146  151 1   
   153  152  153 1   
   154  152  161 1   
   155  153  154 1   
   156  153  156 1   
   157  153  162 1   
   158  154  155 2   
   159  154  167 1   
   160  156  157 1   
   161  156  163 1   
   162  156  164 1   
   163  157  158 1   
   164  157  165 1   
   165  157  166 1   
   166  158  159 1   
   167  158  160 1   
   168  167  168 1   
   169  167  172 1   
   170  168  169 1   
   171  168  170 1   
   172  168  171 1   
   173  174  175 1   
   174  174  176 1   
   175  177  178 1   
   176  177  179 1   
   177  180  181 1   
   178  180  182 1   
   179  183  184 1   
   180  183  185 1   
   181  186  187 1   
   182  186  188 1   
   183  189  190 1   
   184  189  191 1   
@<TRIPOS>SUBSTRUCTURE
     1 MOL         1 TEMP              0 ****  ****    0 ROOT
