@<TRIPOS>MOLECULE
MOL
  192   187     1     0     0
SMALL
resp


@<TRIPOS>ATOM
      1 C1          9.5120    1.3690    1.2760 c3        1 MOL     -0.670423
      2 C2          8.3490    0.6700    0.5610 c         1 MOL      0.800800
      3 O1          7.2650    0.5560    1.1410 o         1 MOL     -0.701165
      4 H1         10.3240    1.5360    0.5690 hc        1 MOL      0.172134
      5 H2          9.1740    2.3270    1.6720 hc        1 MOL      0.172134
      6 H3          9.8660    0.7420    2.0930 hc        1 MOL      0.172134
      7 N1          8.6110    0.1180   -0.5680 n         1 MOL     -0.479535
      8 C3          7.6250   -0.3110   -1.5910 c3        1 MOL      0.027075
      9 C4          7.2170   -1.8010   -1.3850 c         1 MOL      0.381915
     10 O2          7.3990   -2.6840   -2.2120 o         1 MOL     -0.458629
     11 C5          8.1630   -0.0540   -3.0280 c3        1 MOL     -0.190050
     12 C6          9.4900   -0.6330   -3.4700 c         1 MOL      0.657698
     13 O3         10.4670   -0.9000   -2.6970 o         1 MOL     -0.628791
     14 O4          9.6070   -0.8820   -4.7170 o         1 MOL     -0.628791
     15 H4          9.4920    0.3140   -1.0280 hn        1 MOL      0.220146
     16 H5          6.6850    0.2460   -1.5440 h1        1 MOL      0.077089
     17 H6          8.3170    1.0200   -3.0980 hc        1 MOL      0.082971
     18 H7          7.3470   -0.1790   -3.7420 hc        1 MOL      0.082971
     19 N2          6.7200   -2.0460   -0.1720 n         1 MOL     -0.161822
     20 C7          6.2260   -3.3500    0.3780 c3        1 MOL      0.105694
     21 C8          4.7790   -3.6580    0.1210 c         1 MOL      0.481734
     22 O5          4.4990   -4.7340   -0.4310 o         1 MOL     -0.535254
     23 C9          6.6830   -3.4550    1.8660 c3        1 MOL      0.054350
     24 C10         8.1370   -3.4140    1.9310 c3        1 MOL     -0.141819
     25 C11         8.4950   -3.2640    3.4400 c3        1 MOL     -0.216804
     26 C12        10.0310   -3.3330    3.4830 c3        1 MOL      0.137665
     27 N3         10.5370   -3.2080    4.9100 n4        1 MOL     -0.249397
     28 H8          6.7270   -1.1680    0.3350 hn        1 MOL      0.269941
     29 H9          6.7550   -4.1570   -0.1410 h1        1 MOL      0.028906
     30 H10         6.3370   -4.4120    2.2420 hc        1 MOL      0.001759
     31 H11         6.1960   -2.6470    2.4040 hc        1 MOL      0.001759
     32 H12         8.5750   -2.5780    1.3890 hc        1 MOL      0.076461
     33 H13         8.5860   -4.3610    1.6150 hc        1 MOL      0.076461
     34 H14         8.1110   -4.1190    3.9960 hc        1 MOL      0.080817
     35 H15         8.2440   -2.3350    3.9530 hc        1 MOL      0.080817
     36 H16        10.4920   -2.6020    2.8250 hx        1 MOL      0.063232
     37 H17        10.3750   -4.3250    3.1740 hx        1 MOL      0.063232
     38 H18        11.5430   -3.1290    4.9920 hn        1 MOL      0.247936
     39 H19        10.2830   -2.3620    5.3960 hn        1 MOL      0.247936
     40 H20        10.1700   -3.9380    5.4900 hn        1 MOL      0.247936
     41 N4          3.8760   -2.7880    0.4580 n         1 MOL     -0.420220
     42 C13         4.0210   -1.4750    1.1950 c3        1 MOL      0.045068
     43 C14         4.0710   -0.3160    0.1520 c         1 MOL     -0.134607
     44 O6          4.1190   -0.4690   -1.0580 o         1 MOL     -0.287703
     45 C15         2.8900   -1.2880    2.2810 c3        1 MOL     -0.306291
     46 C16         1.5190   -1.6340    1.6460 c         1 MOL      0.728899
     47 O7          1.1380   -0.9930    0.6520 o         1 MOL     -0.666768
     48 O8          0.8350   -2.4900    2.2360 o         1 MOL     -0.666768
     49 H21         2.9560   -2.9510    0.0530 hn        1 MOL      0.353579
     50 H22         4.9610   -1.3940    1.7400 h1        1 MOL      0.176337
     51 H23         2.8730   -0.2750    2.6870 hc        1 MOL      0.060913
     52 H24         3.1050   -2.0570    3.0280 hc        1 MOL      0.060913
     53 N5          4.1380    0.9190    0.6640 n         1 MOL     -0.246569
     54 C17         4.1980    2.1180   -0.1820 c3        1 MOL      0.008170
     55 C18         2.8450    2.6250   -0.7510 c         1 MOL      0.491921
     56 O9          1.7280    2.2030   -0.4120 o         1 MOL     -0.503505
     57 H25         4.4300    1.0240    1.6250 hn        1 MOL      0.314773
     58 H26         4.8830    1.9440   -1.0140 h1        1 MOL      0.074948
     59 H27         4.7310    2.9150    0.3400 h1        1 MOL      0.074948
     60 N6          2.9500    3.5630   -1.6780 n         1 MOL     -0.509024
     61 C19         1.8870    4.1940   -2.4950 c3        1 MOL      0.243714
     62 C20         2.2010    5.7250   -2.8040 c         1 MOL      0.493887
     63 O10         3.3040    6.1420   -2.7960 o         1 MOL     -0.506721
     64 C21         1.6590    3.3780   -3.8280 c3        1 MOL     -0.269494
     65 C22         1.2890    1.9690   -3.5440 c         1 MOL      0.714108
     66 O11         0.2810    1.6920   -2.8760 o         1 MOL     -0.674450
     67 O12         2.0420    1.0490   -3.9440 o         1 MOL     -0.674450
     68 H28         3.8960    3.7230   -2.0040 hn        1 MOL      0.289977
     69 H29         0.9460    4.1330   -1.9480 h1        1 MOL      0.022499
     70 H30         2.5340    3.4200   -4.4820 hc        1 MOL      0.076331
     71 H31         0.8930    3.8320   -4.4580 hc        1 MOL      0.076331
     72 N7          1.1740    6.5760   -3.0730 n         1 MOL     -0.486893
     73 C23        -0.2390    6.3040   -3.2260 c3        1 MOL     -0.034305
     74 C24        -0.9760    6.2920   -1.8970 c         1 MOL      0.689524
     75 O13        -0.7170    7.1850   -1.1010 o         1 MOL     -0.554692
     76 H32         1.3530    7.5630   -3.2000 hn        1 MOL      0.325031
     77 H33        -0.4410    5.3530   -3.7460 h1        1 MOL      0.062056
     78 H34        -0.7160    7.0340   -3.8780 h1        1 MOL      0.062056
     79 N8         -1.9850    5.4120   -1.7680 n         1 MOL     -0.692887
     80 C25        -2.7550    5.2110   -0.4950 c3        1 MOL      0.092486
     81 C26        -2.0160    4.0960    0.3670 c         1 MOL      0.892070
     82 O14        -1.3730    3.2210   -0.2200 o         1 MOL     -0.655288
     83 C27        -4.2170    4.7800   -0.7350 c3        1 MOL      0.249281
     84 C28        -5.1220    4.9160    0.4620 c3        1 MOL     -0.217663
     85 O15        -4.2690    3.5020   -1.2560 oh        1 MOL     -0.585983
     86 H35        -2.1860    4.6970   -2.4530 hn        1 MOL      0.326700
     87 H36        -2.7150    6.2030   -0.0440 h1        1 MOL      0.060110
     88 H37        -4.7410    5.5180   -1.3350 h1        1 MOL      0.032895
     89 H38        -5.1550    3.4240   -1.6050 ho        1 MOL      0.409215
     90 H39        -5.0840    3.9780    1.0060 hc        1 MOL      0.051122
     91 H40        -4.8830    5.6840    1.2030 hc        1 MOL      0.051122
     92 H41        -6.1430    5.0510    0.1170 hc        1 MOL      0.051122
     93 N9         -2.0130    4.2620    1.7390 n         1 MOL     -0.853235
     94 C29        -1.3960    3.3100    2.7130 c3        1 MOL      0.002671
     95 C30        -1.8310    1.8690    2.6330 c         1 MOL      0.771364
     96 O16        -1.4230    1.1420    1.6970 o         1 MOL     -0.632044
     97 C31         0.1780    3.4370    2.6220 c3        1 MOL      0.316886
     98 C32         0.8860    4.8860    2.4590 c3        1 MOL     -0.286366
     99 C33         0.8310    3.0190    3.9560 c3        1 MOL     -0.353921
    100 C34         0.3600    5.9490    3.4130 c3        1 MOL     -0.118656
    101 H42        -2.4390    5.0740    2.1580 hn        1 MOL      0.392282
    102 H43        -1.7190    3.6790    3.6800 h1        1 MOL      0.076590
    103 H44         0.5320    2.7530    1.8530 hc        1 MOL     -0.064149
    104 H45         0.5930    5.3070    1.4960 hc        1 MOL      0.119869
    105 H46         1.9750    4.9070    2.4820 hc        1 MOL      0.119869
    106 H47         0.5290    3.5750    4.8350 hc        1 MOL      0.085663
    107 H48         0.4480    2.0190    4.1700 hc        1 MOL      0.085663
    108 H49         1.9170    2.9310    3.8980 hc        1 MOL      0.085663
    109 H50         0.6550    6.9730    3.1430 hc        1 MOL      0.037344
    110 H51        -0.7290    5.9710    3.4600 hc        1 MOL      0.037344
    111 H52         0.7430    5.9160    4.4320 hc        1 MOL      0.037344
    112 N10        -2.6010    1.3850    3.5940 n         1 MOL     -0.462210
    113 C35        -2.9860   -0.0350    3.8090 c3        1 MOL     -0.119084
    114 C36        -4.1790   -0.5900    3.0630 c         1 MOL      0.493670
    115 O17        -4.4250   -1.8040    3.0220 o         1 MOL     -0.573166
    116 C37        -3.1170   -0.3610    5.3250 c3        1 MOL      0.452026
    117 C38        -3.9730    0.5190    6.1700 c3        1 MOL     -0.245484
    118 O18        -1.8600   -0.2400    5.8550 oh        1 MOL     -0.652366
    119 H53        -2.8330    1.9750    4.3770 hn        1 MOL      0.235425
    120 H54        -2.1910   -0.6430    3.3760 h1        1 MOL      0.100283
    121 H55        -3.4850   -1.3750    5.4480 h1        1 MOL      0.006576
    122 H56        -1.2870   -0.9790    5.6170 ho        1 MOL      0.415350
    123 H57        -4.2010    0.0430    7.1170 hc        1 MOL      0.065031
    124 H58        -3.4380    1.4480    6.3900 hc        1 MOL      0.065031
    125 H59        -4.8950    0.7110    5.6150 hc        1 MOL      0.065031
    126 N11        -4.9950    0.2390    2.4790 n         1 MOL     -0.149014
    127 C39        -6.2670   -0.1690    1.8380 c3        1 MOL     -0.375246
    128 C40        -6.0900   -0.8930    0.5230 c         1 MOL      0.602365
    129 O19        -5.3900   -0.3650   -0.3650 o         1 MOL     -0.511290
    130 C41        -7.0930    1.1390    1.7360 c3        1 MOL      0.454084
    131 C42        -8.4030    0.8870    0.9650 c3        1 MOL     -0.438523
    132 O20        -7.4200    1.5700    3.0200 oh        1 MOL     -0.615717
    133 H60        -4.6290    1.1740    2.3380 hn        1 MOL      0.167233
    134 H61        -6.7730   -0.8400    2.5420 h1        1 MOL      0.183440
    135 H62        -6.5010    1.9680    1.3470 h1        1 MOL     -0.049859
    136 H63        -6.8910    2.3240    3.2930 ho        1 MOL      0.394944
    137 H64        -8.8250   -0.0660    1.2810 hc        1 MOL      0.125378
    138 H65        -9.0510    1.7110    1.2750 hc        1 MOL      0.125378
    139 H66        -8.3390    0.8460   -0.1230 hc        1 MOL      0.125378
    140 N12        -6.6960   -2.0630    0.3370 n         1 MOL     -0.391212
    141 C43        -6.7310   -2.9940   -0.7600 c3        1 MOL      0.174542
    142 C44        -5.3420   -3.1650   -1.4860 c         1 MOL      0.514133
    143 O21        -5.2100   -2.9040   -2.6880 o         1 MOL     -0.537197
    144 C45        -7.9330   -2.6470   -1.7270 c3        1 MOL     -0.373222
    145 C46        -9.3040   -2.5250   -1.1030 c3        1 MOL      0.266551
    146 C47       -10.3990   -2.2930   -2.1540 c3        1 MOL     -0.116305
    147 C48       -11.7280   -1.8880   -1.4810 c3        1 MOL      0.117955
    148 N13       -12.8810   -2.2520   -2.3500 n4        1 MOL     -0.147773
    149 H67        -7.3640   -2.2630    1.0720 hn        1 MOL      0.221352
    150 H68        -6.9000   -4.0090   -0.4150 h1        1 MOL      0.035947
    151 H69        -8.0310   -3.5240   -2.3670 hc        1 MOL      0.107967
    152 H70        -7.7680   -1.7630   -2.3360 hc        1 MOL      0.107967
    153 H71        -9.2900   -1.6340   -0.4840 hc        1 MOL     -0.039497
    154 H72        -9.5950   -3.3380   -0.4480 hc        1 MOL     -0.039497
    155 H73       -10.4710   -3.2010   -2.7650 hc        1 MOL      0.050626
    156 H74       -10.1700   -1.4710   -2.8200 hc        1 MOL      0.050626
    157 H75       -11.8000   -0.8320   -1.2230 hx        1 MOL      0.030139
    158 H76       -11.8320   -2.3600   -0.5080 hx        1 MOL      0.030139
    159 H77       -12.7300   -1.9000   -3.2880 hn        1 MOL      0.179834
    160 H78       -13.0660   -3.2190   -2.5410 hn        1 MOL      0.179834
    161 H79       -13.7670   -1.8860   -2.0170 hn        1 MOL      0.179834
    162 N14        -4.3340   -3.5440   -0.7520 n         1 MOL     -0.392589
    163 C49        -2.9270   -3.7090   -1.2180 c3        1 MOL      0.384775
    164 C50        -2.0030   -2.9850   -0.1670 c         1 MOL      0.344293
    165 O22        -1.4730   -1.9210   -0.4790 o         1 MOL     -0.625368
    166 C51        -2.6980   -5.1990   -1.4150 c3        1 MOL     -0.227495
    167 C52        -3.1170   -5.7160   -2.8200 c3        1 MOL     -0.258078
    168 C53        -2.9590   -7.2680   -2.8380 c         1 MOL      0.725315
    169 O23        -1.9330   -7.7980   -3.2930 o         1 MOL     -0.631475
    170 O24        -3.9240   -7.9280   -2.4530 o         1 MOL     -0.631475
    171 H80        -4.4700   -3.6450    0.2460 hn        1 MOL      0.221552
    172 H81        -2.7070   -3.1500   -2.1280 h1        1 MOL      0.046265
    173 H82        -3.1270   -5.7600   -0.5900 hc        1 MOL      0.080394
    174 H83        -1.6180   -5.2960   -1.4280 hc        1 MOL      0.080394
    175 H84        -2.5110   -5.2790   -3.6140 hc        1 MOL      0.066336
    176 H85        -4.1580   -5.3900   -2.8670 hc        1 MOL      0.066336
    177 N15        -1.6920   -3.4000    1.0540 n         1 MOL     -0.228648
    178 C54        -1.9800   -4.6990    1.6680 c3        1 MOL      0.002505
    179 H86        -2.9220   -5.0840    1.2770 h1        1 MOL      0.029126
    180 H87        -1.1770   -5.3990    1.4340 h1        1 MOL      0.029126
    181 H88        -2.0570   -4.5830    2.7490 h1        1 MOL      0.029126
    182 H89        -1.0220   -2.8420    1.5590 hn        1 MOL      0.283479
    183 Ca1        -0.4140    0.4580   -0.7190 Ca        1 MOL      1.720747
    184 O25         1.5480   -0.8190   -2.1040 oh        1 MOL     -0.798250
    185 H90         1.7930   -0.0200   -2.5750 ho        1 MOL      0.385578
    186 H91         2.2980   -1.0140   -1.5520 ho        1 MOL      0.385578
    187 O26        -1.4940   -0.6070   -3.1660 oh        1 MOL     -0.798250
    188 H92        -1.0890   -0.1220   -3.8830 ho        1 MOL      0.385578
    189 H93        -0.9520   -1.3840   -3.0570 ho        1 MOL      0.385578
    190 O27        -2.9230    1.1260   -1.2390 oh        1 MOL     -0.798250
    191 H94        -3.0790    2.0320   -1.5170 ho        1 MOL      0.385578
    192 H95        -3.7860    0.7910   -1.0090 ho        1 MOL      0.385578
@<TRIPOS>BOND
     1    1    2 1   
     2    1    4 1   
     3    1    5 1   
     4    1    6 1   
     5    2    3 2   
     6    2    7 1   
     7    7    8 1   
     8    7   15 1   
     9    8    9 1   
    10    8   11 1   
    11    8   16 1   
    12    9   10 2   
    13    9   19 1   
    14   11   12 1   
    15   11   17 1   
    16   11   18 1   
    17   12   13 1   
    18   12   14 1   
    19   19   20 1   
    20   19   28 1   
    21   20   21 1   
    22   20   23 1   
    23   20   29 1   
    24   21   22 2   
    25   21   41 1   
    26   23   24 1   
    27   23   30 1   
    28   23   31 1   
    29   24   25 1   
    30   24   32 1   
    31   24   33 1   
    32   25   26 1   
    33   25   34 1   
    34   25   35 1   
    35   26   27 1   
    36   26   36 1   
    37   26   37 1   
    38   27   38 1   
    39   27   39 1   
    40   27   40 1   
    41   41   42 1   
    42   41   49 1   
    43   42   43 1   
    44   42   45 1   
    45   42   50 1   
    46   43   44 2   
    47   43   53 1   
    48   45   46 1   
    49   45   51 1   
    50   45   52 1   
    51   46   47 1   
    52   46   48 1   
    53   53   54 1   
    54   53   57 1   
    55   54   55 1   
    56   54   58 1   
    57   54   59 1   
    58   55   56 2   
    59   55   60 1   
    60   60   61 1   
    61   60   68 1   
    62   61   62 1   
    63   61   64 1   
    64   61   69 1   
    65   62   63 2   
    66   62   72 1   
    67   64   65 1   
    68   64   70 1   
    69   64   71 1   
    70   65   66 1   
    71   65   67 1   
    72   72   73 1   
    73   72   76 1   
    74   73   74 1   
    75   73   77 1   
    76   73   78 1   
    77   74   75 2   
    78   74   79 1   
    79   79   80 1   
    80   79   86 1   
    81   80   81 1   
    82   80   83 1   
    83   80   87 1   
    84   81   82 2   
    85   81   93 1   
    86   83   84 1   
    87   83   85 1   
    88   83   88 1   
    89   84   90 1   
    90   84   91 1   
    91   84   92 1   
    92   85   89 1   
    93   93   94 1   
    94   93  101 1   
    95   94   95 1   
    96   94   97 1   
    97   94  102 1   
    98   95   96 2   
    99   95  112 1   
   100   97   98 1   
   101   97   99 1   
   102   97  103 1   
   103   98  100 1   
   104   98  104 1   
   105   98  105 1   
   106   99  106 1   
   107   99  107 1   
   108   99  108 1   
   109  100  109 1   
   110  100  110 1   
   111  100  111 1   
   112  112  113 1   
   113  112  119 1   
   114  113  114 1   
   115  113  116 1   
   116  113  120 1   
   117  114  115 2   
   118  114  126 1   
   119  116  117 1   
   120  116  118 1   
   121  116  121 1   
   122  117  123 1   
   123  117  124 1   
   124  117  125 1   
   125  118  122 1   
   126  126  127 1   
   127  126  133 1   
   128  127  128 1   
   129  127  130 1   
   130  127  134 1   
   131  128  129 2   
   132  128  140 1   
   133  130  131 1   
   134  130  132 1   
   135  130  135 1   
   136  131  137 1   
   137  131  138 1   
   138  131  139 1   
   139  132  136 1   
   140  140  141 1   
   141  140  149 1   
   142  141  142 1   
   143  141  144 1   
   144  141  150 1   
   145  142  143 2   
   146  142  162 1   
   147  144  145 1   
   148  144  151 1   
   149  144  152 1   
   150  145  146 1   
   151  145  153 1   
   152  145  154 1   
   153  146  147 1   
   154  146  155 1   
   155  146  156 1   
   156  147  148 1   
   157  147  157 1   
   158  147  158 1   
   159  148  159 1   
   160  148  160 1   
   161  148  161 1   
   162  162  163 1   
   163  162  171 1   
   164  163  164 1   
   165  163  166 1   
   166  163  172 1   
   167  164  165 2   
   168  164  177 1   
   169  166  167 1   
   170  166  173 1   
   171  166  174 1   
   172  167  168 1   
   173  167  175 1   
   174  167  176 1   
   175  168  169 1   
   176  168  170 1   
   177  177  178 1   
   178  177  182 1   
   179  178  179 1   
   180  178  180 1   
   181  178  181 1   
   182  184  185 1   
   183  184  186 1   
   184  187  188 1   
   185  187  189 1   
   186  190  191 1   
   187  190  192 1   
@<TRIPOS>SUBSTRUCTURE
     1 MOL         1 TEMP              0 ****  ****    0 ROOT
