@<TRIPOS>MOLECULE
MOL
  191   184     1     0     0
SMALL
resp


@<TRIPOS>ATOM
      1 C1         -3.6550    0.7850   -3.1720 c3        1 MOL     -0.393127
      2 C2         -4.5350    1.2680   -2.0520 c         1 MOL      0.658062
      3 O1         -4.2730    0.9930   -0.9240 o         1 MOL     -0.452952
      4 H1         -4.1310   -0.0630   -3.6660 hc        1 MOL      0.102573
      5 H2         -3.5090    1.5900   -3.8930 hc        1 MOL      0.102573
      6 H3         -2.6900    0.4760   -2.7700 hc        1 MOL      0.102573
      7 N1         -5.6430    1.9950   -2.3160 n         1 MOL     -0.654289
      8 C3         -6.6490    2.4630   -1.3550 c3        1 MOL      0.009494
      9 C4         -7.0990    1.2990   -0.4230 c         1 MOL      0.509697
     10 O2         -7.3580    1.4700    0.7530 o         1 MOL     -0.495560
     11 C5         -6.2650    3.7300   -0.5150 c3        1 MOL     -0.142694
     12 C6         -5.5380    4.8530   -1.3320 c         1 MOL      0.716460
     13 O3         -5.4380    4.7760   -2.5790 o         1 MOL     -0.657928
     14 O4         -5.3130    5.9430   -0.7820 o         1 MOL     -0.657928
     15 H4         -5.8160    2.1680   -3.2990 hn        1 MOL      0.336300
     16 H5         -7.5790    2.7590   -1.8380 h1        1 MOL      0.103291
     17 H6         -5.5060    3.3800    0.1850 hc        1 MOL      0.055157
     18 H7         -7.0450    4.1790    0.0960 hc        1 MOL      0.055157
     19 N2         -7.3230    0.1280   -0.9930 n         1 MOL     -0.436916
     20 C7         -7.8690   -1.1240   -0.4350 c3        1 MOL      0.035051
     21 C8         -6.8830   -2.1380    0.1410 c         1 MOL      0.549343
     22 O5         -7.2730   -3.0430    0.9120 o         1 MOL     -0.566467
     23 C9         -8.9770   -1.8290   -1.2680 c3        1 MOL     -0.000048
     24 C10        -8.3760   -2.5560   -2.4250 c3        1 MOL     -0.125478
     25 C11        -9.4850   -3.4580   -3.0020 c3        1 MOL      0.122196
     26 C12        -8.8930   -4.3960   -4.0500 c3        1 MOL      0.020667
     27 N3        -10.0440   -5.2470   -4.5170 n4        1 MOL     -0.117825
     28 H8         -7.2010    0.2770   -1.9810 hn        1 MOL      0.223977
     29 H9         -8.4780   -0.8770    0.4380 h1        1 MOL      0.100093
     30 H10        -9.6910   -1.1140   -1.6840 hc        1 MOL      0.036973
     31 H11        -9.6420   -2.3560   -0.5820 hc        1 MOL      0.036973
     32 H12        -7.6530   -3.2720   -2.0240 hc        1 MOL      0.039977
     33 H13        -8.0210   -1.9180   -3.2240 hc        1 MOL      0.039977
     34 H14       -10.3200   -2.8970   -3.4200 hc        1 MOL     -0.006926
     35 H15        -9.8240   -4.1140   -2.2040 hc        1 MOL     -0.006926
     36 H16        -8.1150   -5.0720   -3.6820 hx        1 MOL      0.068692
     37 H17        -8.4800   -3.8200   -4.8780 hx        1 MOL      0.068692
     38 H18       -10.9120   -4.7940   -4.7680 hn        1 MOL      0.188328
     39 H19        -9.8720   -5.8930   -5.2740 hn        1 MOL      0.188328
     40 H20       -10.3640   -5.8080   -3.7430 hn        1 MOL      0.188328
     41 N4         -5.6760   -1.9190   -0.2430 n         1 MOL     -0.437244
     42 C13        -4.4540   -2.7150    0.0610 c3        1 MOL      0.122169
     43 C14        -4.2980   -2.7500    1.6140 c         1 MOL      0.608061
     44 O6         -4.6380   -1.8320    2.4030 o         1 MOL     -0.474923
     45 C15        -3.2520   -1.9460   -0.5640 c3        1 MOL     -0.403076
     46 C16        -1.9550   -2.7360   -0.3790 c         1 MOL      0.876045
     47 O7         -1.4010   -2.8290    0.7580 o         1 MOL     -0.776237
     48 O8         -1.3640   -3.2980   -1.3360 o         1 MOL     -0.776237
     49 H21        -5.5140   -1.0910   -0.8010 hn        1 MOL      0.247489
     50 H22        -4.5790   -3.7020   -0.3880 h1        1 MOL      0.043970
     51 H23        -3.2450   -1.0390    0.0440 hc        1 MOL      0.134981
     52 H24        -3.5120   -1.8700   -1.6260 hc        1 MOL      0.134981
     53 N5         -3.7160   -3.7700    2.1810 n         1 MOL     -0.683452
     54 C17        -3.3860   -4.0190    3.6560 c3        1 MOL      0.399597
     55 C18        -2.4740   -3.0040    4.2230 c         1 MOL      0.106402
     56 O9         -2.5840   -2.6090    5.3870 o         1 MOL     -0.487210
     57 H25        -3.4040   -4.5520    1.6200 hn        1 MOL      0.308103
     58 H26        -2.9780   -5.0290    3.6900 h1        1 MOL      0.005287
     59 H27        -4.2340   -4.2270    4.3090 h1        1 MOL      0.005287
     60 N6         -1.5810   -2.3810    3.4310 n         1 MOL      0.288361
     61 C19        -0.7490   -1.3360    3.9650 c3        1 MOL     -0.126087
     62 C20        -1.5220   -0.0200    4.1230 c         1 MOL      0.513080
     63 O10        -1.0630    0.9600    4.7180 o         1 MOL     -0.558012
     64 C21         0.4960   -1.3390    3.1040 c3        1 MOL     -0.235504
     65 C22         1.4530   -2.4400    3.2660 c         1 MOL      0.699951
     66 N7          2.2330   -2.3830    4.3200 n         1 MOL     -0.762044
     67 O11         1.4320   -3.4170    2.5570 o         1 MOL     -0.649834
     68 H28        -1.2800   -2.7400    2.5370 hn        1 MOL     -0.120655
     69 H29        -0.4340   -1.6080    4.9680 h1        1 MOL      0.073984
     70 H30         1.0780   -0.4420    3.3090 hc        1 MOL      0.083004
     71 H31         0.3130   -1.3090    2.0350 hc        1 MOL      0.083004
     72 H32         2.2520   -1.5400    4.8760 hn        1 MOL      0.377116
     73 H33         2.7960   -3.1670    4.5850 hn        1 MOL      0.377116
     74 N8         -2.7080    0.0880    3.5180 n         1 MOL     -0.131214
     75 C23        -3.5920    1.2250    3.6830 c3        1 MOL     -0.203936
     76 C24        -3.1850    2.4190    2.8090 c         1 MOL      0.585679
     77 O12        -3.3940    3.5610    3.2810 o         1 MOL     -0.552937
     78 H34        -2.9850   -0.6500    2.8880 hn        1 MOL      0.169056
     79 H35        -3.7290    1.4840    4.7350 h1        1 MOL      0.117549
     80 H36        -4.6190    0.9510    3.4280 h1        1 MOL      0.117549
     81 N9         -2.6240    2.1450    1.6510 n         1 MOL     -0.263172
     82 C25        -1.7630    2.9900    0.7770 c3        1 MOL     -0.042127
     83 C26        -0.7990    2.1420   -0.0210 c         1 MOL      0.512804
     84 O13        -0.8740    0.8710   -0.0730 o         1 MOL     -0.563070
     85 C27        -2.5970    3.9080   -0.1700 c3        1 MOL     -0.155466
     86 C28        -1.8910    5.2590   -0.6580 ca        1 MOL     -0.005982
     87 C29        -1.3310    6.2140    0.2420 ca        1 MOL     -0.032500
     88 C30        -1.8800    5.6020   -2.0050 ca        1 MOL     -0.032500
     89 C31        -0.7000    7.3620   -0.1920 ca        1 MOL     -0.213671
     90 C32        -1.3520    6.8390   -2.4420 ca        1 MOL     -0.213671
     91 C33        -0.7040    7.7010   -1.5140 ca        1 MOL      0.260463
     92 O14        -0.1880    8.9160   -1.9340 oh        1 MOL     -0.506876
     93 H37        -2.5020    1.1690    1.4350 hn        1 MOL      0.144506
     94 H38        -1.0910    3.6130    1.3810 h1        1 MOL      0.090389
     95 H39        -3.5570    4.1180    0.3000 hc        1 MOL      0.107755
     96 H40        -2.9390    3.2960   -1.0100 hc        1 MOL      0.107755
     97 H41        -1.3430    5.9200    1.2870 ha        1 MOL      0.089011
     98 H42        -2.3280    4.9900   -2.7820 ha        1 MOL      0.089011
     99 H43        -0.1340    7.9850    0.4770 ha        1 MOL      0.119614
    100 H44        -1.3010    6.9650   -3.5190 ha        1 MOL      0.119614
    101 H45        -0.3470    9.1110   -2.8570 ho        1 MOL      0.379914
    102 N10         0.2440    2.7380   -0.6010 n         1 MOL     -0.308363
    103 C34         1.4930    2.0320   -1.1360 c3        1 MOL      0.065397
    104 C35         2.3630    1.5780    0.0470 c         1 MOL      0.415348
    105 O15         3.1330    0.6280   -0.1230 o         1 MOL     -0.503379
    106 C36         2.2430    2.9370   -2.1780 c3        1 MOL     -0.035432
    107 C37         1.3470    3.1880   -3.4000 c3        1 MOL     -0.327497
    108 C38         3.5450    2.2800   -2.7420 c3        1 MOL     -0.068067
    109 C39         1.9140    4.0450   -4.4850 c3        1 MOL     -0.033749
    110 H46         0.3560    3.6540   -0.1760 hn        1 MOL      0.085127
    111 H47         1.1390    1.1500   -1.6670 h1        1 MOL      0.045950
    112 H48         2.4850    3.9100   -1.7570 hc        1 MOL      0.078802
    113 H49         0.4230    3.6270   -3.0400 hc        1 MOL      0.120179
    114 H50         1.0480    2.2780   -3.9130 hc        1 MOL      0.120179
    115 H51         3.3970    1.2570   -3.0770 hc        1 MOL      0.032828
    116 H52         4.0870    2.9180   -3.4390 hc        1 MOL      0.032828
    117 H53         4.2140    2.1470   -1.8980 hc        1 MOL      0.032828
    118 H54         2.4580    4.8300   -3.9580 hc        1 MOL      0.026335
    119 H55         2.6460    3.5870   -5.1520 hc        1 MOL      0.026335
    120 H56         1.1870    4.5680   -5.1050 hc        1 MOL      0.026335
    121 N11         2.3790    2.2350    1.1990 n         1 MOL     -0.147873
    122 C40         3.1360    1.8910    2.4250 c3        1 MOL     -0.242395
    123 C41         4.5200    2.5420    2.4250 c         1 MOL      0.545737
    124 O16         5.3000    2.3070    3.3530 o         1 MOL     -0.469030
    125 C42         2.3650    2.2590    3.6580 c3        1 MOL      0.229048
    126 O17         2.1340    3.6780    3.6890 oh        1 MOL     -0.665715
    127 H57         1.9240    3.1380    1.2490 hn        1 MOL      0.254690
    128 H58         3.3890    0.8460    2.3560 h1        1 MOL      0.136339
    129 H59         3.0290    1.9150    4.4440 h1        1 MOL      0.024107
    130 H60         1.3670    1.8110    3.6260 h1        1 MOL      0.024107
    131 H61         1.6610    3.9810    4.4660 ho        1 MOL      0.457193
    132 N12         4.8850    3.3780    1.4230 n         1 MOL     -0.325320
    133 C43         6.1990    3.7630    0.9830 c3        1 MOL     -0.046854
    134 C44         7.3130    2.6990    1.0020 c         1 MOL      0.477920
    135 O18         8.5250    3.0240    1.1240 o         1 MOL     -0.495516
    136 C45         6.6520    4.9530    1.8280 c3        1 MOL     -0.237904
    137 H62         4.1480    3.8450    0.8950 hn        1 MOL      0.245093
    138 H63         6.0970    4.1660   -0.0200 h1        1 MOL      0.111910
    139 H64         7.6690    5.3370    1.7180 hc        1 MOL      0.085336
    140 H65         6.0210    5.8320    1.6630 hc        1 MOL      0.085336
    141 H66         6.5540    4.8060    2.8990 hc        1 MOL      0.085336
    142 N13         6.8530    1.4500    0.9140 n         1 MOL     -0.489617
    143 C46         7.6930    0.2660    0.7770 c3        1 MOL      0.575222
    144 C47         7.6680   -0.5550   -0.4920 c         1 MOL      0.267564
    145 O19         6.7450   -0.4130   -1.2480 o         1 MOL     -0.429876
    146 C48         7.6040   -0.6010    2.0430 c3        1 MOL     -0.168585
    147 H67         5.8520    1.3500    0.9080 hn        1 MOL      0.210888
    148 H68         8.7270    0.5890    0.7830 h1        1 MOL     -0.083951
    149 H69         6.6820   -1.1830    1.9480 hc        1 MOL      0.027811
    150 H70         8.4060   -1.3150    2.2110 hc        1 MOL      0.027811
    151 H71         7.4610    0.0680    2.8900 hc        1 MOL      0.027811
    152 N14         8.5910   -1.5860   -0.6710 n         1 MOL     -0.439528
    153 C49         8.7200   -2.4060   -1.9060 c3        1 MOL     -0.196504
    154 C50         8.5780   -1.7100   -3.2940 c         1 MOL      0.553069
    155 O20         8.2340   -2.3340   -4.3050 o         1 MOL     -0.489943
    156 C51         7.9760   -3.7440   -1.7580 c3        1 MOL      0.330335
    157 C52         6.4410   -3.7060   -2.0340 c3        1 MOL     -0.344662
    158 C53         6.0050   -5.1660   -2.0670 c         1 MOL      0.672145
    159 O21         5.8420   -5.8910   -3.0800 o         1 MOL     -0.670846
    160 O22         6.0110   -5.6900   -0.9060 o         1 MOL     -0.670846
    161 H72         9.2280   -1.8040    0.0720 hn        1 MOL      0.310089
    162 H73         9.7820   -2.6330   -1.8450 h1        1 MOL      0.062992
    163 H74         8.0520   -4.1660   -0.7550 hc        1 MOL     -0.027005
    164 H75         8.4960   -4.4500   -2.3940 hc        1 MOL     -0.027005
    165 H76         6.2930   -3.2460   -3.0120 hc        1 MOL      0.049435
    166 H77         5.8060   -3.2140   -1.2920 hc        1 MOL      0.049435
    167 N15         8.9910   -0.4340   -3.3150 n         1 MOL     -0.326060
    168 C54         8.8290    0.4190   -4.5150 c3        1 MOL     -0.216016
    169 H78         9.0560    1.4530   -4.2580 h1        1 MOL      0.108691
    170 H79         9.5100    0.0810   -5.2960 h1        1 MOL      0.108691
    171 H80         7.8020    0.3510   -4.8730 h1        1 MOL      0.108691
    172 H81         9.3020    0.0180   -2.4620 hn        1 MOL      0.266275
    173 Ca1         0.8320   -3.9940    0.0600 Ca        1 MOL      1.862952
    174 O23        -0.8130   -5.5530    1.4940 oh        1 MOL     -0.885398
    175 H82        -1.6310   -6.0460    1.4370 ho        1 MOL      0.439542
    176 H83        -0.4880   -5.7220    2.3790 ho        1 MOL      0.439542
    177 O24         2.2250   -3.3140   -2.3220 oh        1 MOL     -0.885398
    178 H84         2.8190   -2.5990   -2.5470 ho        1 MOL      0.439542
    179 H85         2.5870   -4.0710   -2.7870 ho        1 MOL      0.439542
    180 O25         3.5600   -3.0160    0.3440 oh        1 MOL     -0.885398
    181 H86         4.1110   -2.4590   -0.1970 ho        1 MOL      0.439542
    182 H87         3.9550   -2.9790    1.2120 ho        1 MOL      0.439542
    183 O26         1.0200   -1.1700   -0.5480 oh        1 MOL     -0.885398
    184 H88         0.1330   -1.0380   -0.8970 ho        1 MOL      0.439542
    185 H89         1.5410   -0.5010   -0.9820 ho        1 MOL      0.439542
    186 O27         2.4980   -6.2550    0.3760 oh        1 MOL     -0.885398
    187 H90         2.2180   -7.0880   -0.0010 ho        1 MOL      0.439542
    188 H91         3.1570   -6.4880    1.0180 ho        1 MOL      0.439542
    189 O28         0.3870   -5.9500   -1.7410 oh        1 MOL     -0.885398
    190 H92         0.9210   -6.3830   -2.3980 ho        1 MOL      0.439542
    191 H93        -0.5170   -6.1680   -1.9770 ho        1 MOL      0.439542
@<TRIPOS>BOND
     1    1    2 1   
     2    1    4 1   
     3    1    5 1   
     4    1    6 1   
     5    2    3 2   
     6    2    7 1   
     7    7    8 1   
     8    7   15 1   
     9    8    9 1   
    10    8   11 1   
    11    8   16 1   
    12    9   10 2   
    13    9   19 1   
    14   11   12 1   
    15   11   17 1   
    16   11   18 1   
    17   12   13 1   
    18   12   14 1   
    19   19   20 1   
    20   19   28 1   
    21   20   21 1   
    22   20   23 1   
    23   20   29 1   
    24   21   22 2   
    25   21   41 1   
    26   23   24 1   
    27   23   30 1   
    28   23   31 1   
    29   24   25 1   
    30   24   32 1   
    31   24   33 1   
    32   25   26 1   
    33   25   34 1   
    34   25   35 1   
    35   26   27 1   
    36   26   36 1   
    37   26   37 1   
    38   27   38 1   
    39   27   39 1   
    40   27   40 1   
    41   41   42 1   
    42   41   49 1   
    43   42   43 1   
    44   42   45 1   
    45   42   50 1   
    46   43   44 2   
    47   43   53 1   
    48   45   46 1   
    49   45   51 1   
    50   45   52 1   
    51   46   47 1   
    52   46   48 1   
    53   53   54 1   
    54   53   57 1   
    55   54   55 1   
    56   54   58 1   
    57   54   59 1   
    58   55   56 2   
    59   55   60 1   
    60   60   61 1   
    61   60   68 1   
    62   61   62 1   
    63   61   64 1   
    64   61   69 1   
    65   62   63 2   
    66   62   74 1   
    67   64   65 1   
    68   64   70 1   
    69   64   71 1   
    70   65   66 1   
    71   65   67 2   
    72   66   72 1   
    73   66   73 1   
    74   74   75 1   
    75   74   78 1   
    76   75   76 1   
    77   75   79 1   
    78   75   80 1   
    79   76   77 2   
    80   76   81 1   
    81   81   82 1   
    82   81   93 1   
    83   82   83 1   
    84   82   85 1   
    85   82   94 1   
    86   83   84 2   
    87   83  102 1   
    88   85   86 1   
    89   85   95 1   
    90   85   96 1   
    91   86   87 ar  
    92   86   88 ar  
    93   87   89 ar  
    94   87   97 1   
    95   88   90 ar  
    96   88   98 1   
    97   89   91 ar  
    98   89   99 1   
    99   90   91 ar  
   100   90  100 1   
   101   91   92 1   
   102   92  101 1   
   103  102  103 1   
   104  102  110 1   
   105  103  104 1   
   106  103  106 1   
   107  103  111 1   
   108  104  105 2   
   109  104  121 1   
   110  106  107 1   
   111  106  108 1   
   112  106  112 1   
   113  107  109 1   
   114  107  113 1   
   115  107  114 1   
   116  108  115 1   
   117  108  116 1   
   118  108  117 1   
   119  109  118 1   
   120  109  119 1   
   121  109  120 1   
   122  121  122 1   
   123  121  127 1   
   124  122  123 1   
   125  122  125 1   
   126  122  128 1   
   127  123  124 2   
   128  123  132 1   
   129  125  126 1   
   130  125  129 1   
   131  125  130 1   
   132  126  131 1   
   133  132  133 1   
   134  132  137 1   
   135  133  134 1   
   136  133  136 1   
   137  133  138 1   
   138  134  135 2   
   139  134  142 1   
   140  136  139 1   
   141  136  140 1   
   142  136  141 1   
   143  142  143 1   
   144  142  147 1   
   145  143  144 1   
   146  143  146 1   
   147  143  148 1   
   148  144  145 2   
   149  144  152 1   
   150  146  149 1   
   151  146  150 1   
   152  146  151 1   
   153  152  153 1   
   154  152  161 1   
   155  153  154 1   
   156  153  156 1   
   157  153  162 1   
   158  154  155 2   
   159  154  167 1   
   160  156  157 1   
   161  156  163 1   
   162  156  164 1   
   163  157  158 1   
   164  157  165 1   
   165  157  166 1   
   166  158  159 1   
   167  158  160 1   
   168  167  168 1   
   169  167  172 1   
   170  168  169 1   
   171  168  170 1   
   172  168  171 1   
   173  174  175 1   
   174  174  176 1   
   175  177  178 1   
   176  177  179 1   
   177  180  181 1   
   178  180  182 1   
   179  183  184 1   
   180  183  185 1   
   181  186  187 1   
   182  186  188 1   
   183  189  190 1   
   184  189  191 1   
@<TRIPOS>SUBSTRUCTURE
     1 MOL         1 TEMP              0 ****  ****    0 ROOT
