@<TRIPOS>MOLECULE
MOL
  178   175     1     0     0
SMALL
resp


@<TRIPOS>ATOM
      1 C1         -1.2400   -5.5990   -3.0450 c3        1 MOL     -0.447447
      2 C2         -2.6640   -5.7600   -2.5900 c         1 MOL      0.797477
      3 O1         -2.8900   -6.4880   -1.6650 o         1 MOL     -0.584581
      4 H1         -0.6370   -6.4120   -2.6430 hc        1 MOL      0.108067
      5 H2         -1.2020   -5.6230   -4.1340 hc        1 MOL      0.108067
      6 H3         -0.8500   -4.6450   -2.6880 hc        1 MOL      0.108067
      7 N1         -3.6090   -5.0000   -3.2110 n         1 MOL     -0.769732
      8 C3         -4.8510   -4.7270   -2.5260 c3        1 MOL      0.435382
      9 C4         -4.6700   -3.9230   -1.2240 c         1 MOL      0.746870
     10 O2         -3.8310   -3.0390   -1.1090 o         1 MOL     -0.624222
     11 C5         -5.7530   -3.7980   -3.4070 c3        1 MOL     -0.380095
     12 C6         -7.2660   -3.8370   -3.0020 c         1 MOL      0.766104
     13 O3         -8.0440   -2.8820   -3.3650 o         1 MOL     -0.729919
     14 O4         -7.7330   -4.8180   -2.4000 o         1 MOL     -0.729919
     15 H4         -3.3870   -4.2050   -3.7870 hn        1 MOL      0.327029
     16 H5         -5.3410   -5.6730   -2.2970 h1        1 MOL     -0.015080
     17 H6         -5.7140   -4.1370   -4.4360 hc        1 MOL      0.058504
     18 H7         -5.3490   -2.7980   -3.2880 hc        1 MOL      0.058504
     19 N2         -5.5810   -4.1570   -0.2120 n         1 MOL     -0.986130
     20 C7         -5.5930   -3.5370    1.0590 c3        1 MOL      0.959408
     21 C8         -4.2720   -3.8300    1.8900 c         1 MOL     -0.005040
     22 O5         -3.4910   -4.7010    1.4430 o         1 MOL     -0.427729
     23 C9         -6.8400   -3.9530    1.8650 c3        1 MOL     -0.258369
     24 H8         -6.3820   -4.7110   -0.4810 hn        1 MOL      0.350946
     25 H9         -5.6790   -2.4630    0.9010 h1        1 MOL     -0.039351
     26 H10        -6.8300   -3.4520    2.8390 hc        1 MOL      0.028619
     27 H11        -7.7070   -3.8260    1.2220 hc        1 MOL      0.028619
     28 H12        -6.6940   -5.0070    2.1050 hc        1 MOL      0.028619
     29 N3         -3.9470   -3.3200    3.0370 n         1 MOL     -0.084620
     30 C10        -4.4350   -2.1820    3.7560 c3        1 MOL     -0.220053
     31 C11        -4.8880   -1.0280    2.8410 c         1 MOL      0.759103
     32 O6         -4.2050   -0.7620    1.8470 o         1 MOL     -0.591484
     33 C12        -3.3860   -1.6550    4.6690 c3        1 MOL     -0.029919
     34 C13        -2.0180   -1.3230    4.0100 c         1 MOL      0.658928
     35 O7         -1.7220   -0.1960    3.6580 o         1 MOL     -0.715020
     36 O8         -1.2110   -2.2570    3.7740 o         1 MOL     -0.715020
     37 H13        -3.0820   -3.7230    3.3680 hn        1 MOL      0.215542
     38 H14        -5.2270   -2.5560    4.4080 h1        1 MOL      0.051854
     39 H15        -3.2240   -2.4330    5.4160 hc        1 MOL      0.008076
     40 H16        -3.7230   -0.7710    5.2120 hc        1 MOL      0.008076
     41 N4         -5.9280   -0.3130    3.1800 n         1 MOL     -0.540893
     42 C14        -6.3510    0.8430    2.3380 c3        1 MOL     -0.082442
     43 C15        -7.2620    0.4370    1.1820 c         1 MOL      0.666936
     44 O9         -7.7530   -0.6930    1.1240 o         1 MOL     -0.588866
     45 H17        -6.4590   -0.6080    3.9790 hn        1 MOL      0.308230
     46 H18        -5.4770    1.3580    1.9570 h1        1 MOL      0.104149
     47 H19        -6.9850    1.4730    2.9750 h1        1 MOL      0.104149
     48 N5         -7.3780    1.1960    0.1150 n         1 MOL     -0.572142
     49 C16        -7.0400    2.6180    0.0080 c3        1 MOL      0.119588
     50 C17        -6.2740    2.8570   -1.4270 c         1 MOL      0.508735
     51 O10        -6.5770    2.2320   -2.4540 o         1 MOL     -0.469144
     52 C18        -8.3940    3.3810   -0.0810 c3        1 MOL     -0.276830
     53 C19        -8.1620    4.9080    0.1090 c         1 MOL      0.655445
     54 N6         -7.4530    5.3660    1.1600 n         1 MOL     -0.806477
     55 O11        -8.5440    5.6050   -0.8100 o         1 MOL     -0.541706
     56 H20        -7.8700    0.8160   -0.6820 hn        1 MOL      0.374342
     57 H21        -6.4850    2.9920    0.8610 h1        1 MOL     -0.027929
     58 H22        -8.9960    3.1060    0.7820 hc        1 MOL      0.104150
     59 H23        -8.8880    3.1030   -1.0180 hc        1 MOL      0.104150
     60 H24        -7.0750    4.7660    1.8800 hn        1 MOL      0.365874
     61 H25        -7.0970    6.3100    1.1340 hn        1 MOL      0.365874
     62 N7         -5.2910    3.7960   -1.4940 n         1 MOL     -0.345600
     63 C20        -4.5720    4.1100   -2.7440 c3        1 MOL     -0.247922
     64 C21        -3.2050    4.8510   -2.6360 c         1 MOL      0.491444
     65 O12        -2.6340    5.2980   -3.6430 o         1 MOL     -0.532184
     66 H26        -5.1770    4.4710   -0.7510 hn        1 MOL      0.265386
     67 H27        -5.3320    4.6530   -3.2930 h1        1 MOL      0.156257
     68 H28        -4.4000    3.1580   -3.2390 h1        1 MOL      0.156257
     69 N8         -2.6610    4.8440   -1.4110 n         1 MOL     -0.242924
     70 C22        -1.3060    5.3160   -1.2030 c3        1 MOL     -0.003427
     71 C23        -0.3430    4.1760   -1.0590 c         1 MOL      0.820928
     72 O13        -0.7430    3.0930   -0.9480 o         1 MOL     -0.620389
     73 C24        -1.2050    6.1930    0.0570 c3        1 MOL      0.373259
     74 C25        -1.8870    7.5070   -0.1740 c3        1 MOL     -0.107006
     75 O14        -1.7840    5.5310    1.1590 oh        1 MOL     -0.626990
     76 H29        -3.1430    4.3960   -0.6400 hn        1 MOL      0.170255
     77 H30        -0.9550    5.9430   -2.0190 h1        1 MOL      0.027547
     78 H31        -0.1510    6.4320    0.1870 h1        1 MOL     -0.041531
     79 H32        -1.1320    4.9530    1.5740 ho        1 MOL      0.417136
     80 H33        -2.9410    7.4460   -0.4700 hc        1 MOL      0.014286
     81 H34        -1.8640    8.0660    0.7630 hc        1 MOL      0.014286
     82 H35        -1.3570    8.1020   -0.9140 hc        1 MOL      0.014286
     83 N9          0.9300    4.5230   -1.2100 n         1 MOL     -0.658567
     84 C26         2.0840    3.6460   -1.0520 c3        1 MOL      0.041612
     85 C27         2.6300    3.7420    0.4410 c         1 MOL      0.365057
     86 O15         2.4850    4.8170    1.0820 o         1 MOL     -0.554361
     87 C28         3.0900    4.0360   -2.1770 c3        1 MOL      0.177389
     88 C29         4.4360    3.3190   -2.0030 c3        1 MOL      0.003128
     89 C30         2.5980    3.7370   -3.5840 c3        1 MOL     -0.383645
     90 C31         5.5990    3.6320   -2.9310 c3        1 MOL     -0.163334
     91 H36         1.1460    5.5050   -1.1310 hn        1 MOL      0.304639
     92 H37         1.7200    2.6650   -1.3560 h1        1 MOL      0.171947
     93 H38         3.2810    5.1020   -2.0570 hc        1 MOL     -0.007590
     94 H39         4.3150    2.2360   -2.0240 hc        1 MOL     -0.002122
     95 H40         4.8180    3.4140   -0.9860 hc        1 MOL     -0.002122
     96 H41         2.5060    2.6620   -3.7230 hc        1 MOL      0.095772
     97 H42         1.6530    4.2150   -3.8170 hc        1 MOL      0.095772
     98 H43         3.4190    4.0400   -4.2330 hc        1 MOL      0.095772
     99 H44         5.8190    4.6800   -3.1060 hc        1 MOL      0.030532
    100 H45         6.5040    3.1910   -2.5330 hc        1 MOL      0.030532
    101 H46         5.3690    3.2660   -3.9430 hc        1 MOL      0.030532
    102 N10         3.1900    2.7090    1.0630 n         1 MOL     -0.261487
    103 C32         3.7960    2.6370    2.4230 c3        1 MOL      0.072748
    104 C33         5.0930    1.8030    2.3910 c         1 MOL      0.452893
    105 O16         5.9330    1.9720    3.2680 o         1 MOL     -0.539742
    106 C34         2.8100    2.1400    3.4780 c3        1 MOL     -0.128025
    107 C35         1.8380    1.0500    3.0660 c         1 MOL      0.787606
    108 O17         0.7840    1.3590    2.4660 o         1 MOL     -0.753643
    109 O18         2.0190   -0.1540    3.3400 o         1 MOL     -0.753643
    110 H47         3.0400    1.8470    0.5550 hn        1 MOL      0.325883
    111 H48         4.0920    3.6140    2.7880 h1        1 MOL      0.075216
    112 H49         2.2150    3.0110    3.7580 hc        1 MOL      0.030956
    113 H50         3.3820    1.8620    4.3680 hc        1 MOL      0.030956
    114 N11         5.3140    1.0250    1.3350 n         1 MOL     -0.463706
    115 C36         6.6400    0.3390    1.0910 c3        1 MOL      0.349282
    116 C37         6.4610   -1.1160    0.6350 c         1 MOL      0.222331
    117 O19         6.9480   -1.5710   -0.4380 o         1 MOL     -0.497887
    118 C38         7.6060    1.2220    0.1840 c3        1 MOL     -0.251209
    119 C39         9.0940    0.8870    0.2590 ca        1 MOL      0.195630
    120 C40         9.7390    0.6310    1.4450 ca        1 MOL     -0.225186
    121 C41         9.8400    0.8620   -0.9420 ca        1 MOL     -0.225186
    122 C42        11.1360    0.5300    1.4520 ca        1 MOL     -0.050057
    123 C43        11.2280    0.6630   -0.9520 ca        1 MOL     -0.050057
    124 C44        11.9340    0.6400    0.2880 ca        1 MOL     -0.210619
    125 H51         4.6740    0.9070    0.5610 hn        1 MOL      0.223972
    126 H52         7.0450    0.2030    2.0830 h1        1 MOL      0.006500
    127 H53         7.4450    2.2540    0.5040 hc        1 MOL      0.093237
    128 H54         7.2320    1.1120   -0.8360 hc        1 MOL      0.093237
    129 H55         9.1830    0.5990    2.3730 ha        1 MOL      0.137179
    130 H56         9.4350    0.8050   -1.9370 ha        1 MOL      0.137179
    131 H57        11.5950    0.4560    2.4260 ha        1 MOL      0.089377
    132 H58        11.7260    0.5420   -1.9020 ha        1 MOL      0.089377
    133 H59        12.9930    0.4660    0.3880 ha        1 MOL      0.119930
    134 N12         5.6780   -1.9360    1.3060 n         1 MOL     -0.034492
    135 C45         5.3110   -3.3270    0.9690 c3        1 MOL     -0.190016
    136 C46         4.6720   -3.6120   -0.4000 c         1 MOL      0.270160
    137 O20         4.6390   -4.8010   -0.8300 o         1 MOL     -0.528521
    138 C47         4.2730   -3.6150    2.0190 c3        1 MOL      0.076731
    139 C48         4.5910   -2.8630    3.2900 c3        1 MOL     -0.079388
    140 C49         5.0790   -1.5940    2.6090 c3        1 MOL     -0.023385
    141 H60         6.2010   -3.9380    1.1500 h1        1 MOL      0.129926
    142 H61         3.3140   -3.1950    1.7070 hc        1 MOL      0.024758
    143 H62         4.1760   -4.6450    2.3530 hc        1 MOL      0.024758
    144 H63         3.7000   -2.7250    3.8900 hc        1 MOL      0.038644
    145 H64         5.4450   -3.2880    3.8200 hc        1 MOL      0.038644
    146 H65         4.2610   -0.9170    2.3230 h1        1 MOL      0.049968
    147 H66         5.7860   -1.0490    3.2320 h1        1 MOL      0.049968
    148 N13         4.2510   -2.6260   -1.1110 n         1 MOL      0.007286
    149 C50         3.9470   -2.6180   -2.5460 c3        1 MOL     -0.277661
    150 C51         5.2020   -2.9950   -3.3060 c         1 MOL      0.650845
    151 O21         5.1710   -3.7010   -4.2770 o         1 MOL     -0.578757
    152 C52         3.5250   -1.2070   -2.9510 c3        1 MOL      0.067977
    153 C53         2.2070   -0.6570   -2.5400 c3        1 MOL      0.073349
    154 C54         2.1950   -0.5040   -1.0360 c         1 MOL      0.513100
    155 O22         1.6370   -1.3310   -0.2630 o         1 MOL     -0.740043
    156 O23         2.8720    0.3810   -0.5930 o         1 MOL     -0.740043
    157 H67         4.4640   -1.7560   -0.6560 hn        1 MOL      0.382397
    158 H68         3.2170   -3.3890   -2.7870 h1        1 MOL      0.132058
    159 H69         3.4330   -1.2230   -4.0410 hc        1 MOL     -0.023042
    160 H70         4.2760   -0.4660   -2.6670 hc        1 MOL     -0.023042
    161 H71         1.3530   -1.2650   -2.8280 hc        1 MOL      0.005860
    162 H72         2.0680    0.2740   -3.0950 hc        1 MOL      0.005860
    163 N14         6.3210   -2.3240   -3.0260 n         1 MOL     -0.309986
    164 C55         7.6180   -2.6370   -3.7060 c3        1 MOL     -0.299029
    165 H73         8.1270   -3.4360   -3.1660 h1        1 MOL      0.119498
    166 H74         7.4240   -2.9570   -4.7300 h1        1 MOL      0.119498
    167 H75         8.2480   -1.7480   -3.7150 h1        1 MOL      0.119498
    168 H76         6.2760   -1.7390   -2.2020 hn        1 MOL      0.208235
    169 Ca1         0.0700   -1.1510    1.7180 Ca        1 MOL      1.759416
    170 O24        -2.2660   -1.8370    0.5800 oh        1 MOL     -0.887130
    171 H77        -2.8120   -2.1800   -0.1270 ho        1 MOL      0.426616
    172 H78        -2.8970   -1.5040    1.2170 ho        1 MOL      0.426616
    173 O25         0.6520   -3.7770    1.5160 oh        1 MOL     -0.887130
    174 H79         0.0260   -4.4590    1.7500 ho        1 MOL      0.426616
    175 H80         1.2830   -4.2180    0.9400 ho        1 MOL      0.426616
    176 O26        -0.8820    0.5370   -0.0930 oh        1 MOL     -0.887130
    177 H81        -1.7830    0.4170   -0.4100 ho        1 MOL      0.426616
    178 H82        -0.6200    1.3910   -0.4130 ho        1 MOL      0.426616
@<TRIPOS>BOND
     1    1    2 1   
     2    1    4 1   
     3    1    5 1   
     4    1    6 1   
     5    2    3 2   
     6    2    7 1   
     7    7    8 1   
     8    7   15 1   
     9    8    9 1   
    10    8   11 1   
    11    8   16 1   
    12    9   10 2   
    13    9   19 1   
    14   11   12 1   
    15   11   17 1   
    16   11   18 1   
    17   12   13 1   
    18   12   14 1   
    19   19   20 1   
    20   19   24 1   
    21   20   21 1   
    22   20   23 1   
    23   20   25 1   
    24   21   22 2   
    25   21   29 1   
    26   23   26 1   
    27   23   27 1   
    28   23   28 1   
    29   29   30 1   
    30   29   37 1   
    31   30   31 1   
    32   30   33 1   
    33   30   38 1   
    34   31   32 2   
    35   31   41 1   
    36   33   34 1   
    37   33   39 1   
    38   33   40 1   
    39   34   35 1   
    40   34   36 1   
    41   41   42 1   
    42   41   45 1   
    43   42   43 1   
    44   42   46 1   
    45   42   47 1   
    46   43   44 2   
    47   43   48 1   
    48   48   49 1   
    49   48   56 1   
    50   49   50 1   
    51   49   52 1   
    52   49   57 1   
    53   50   51 2   
    54   50   62 1   
    55   52   53 1   
    56   52   58 1   
    57   52   59 1   
    58   53   54 1   
    59   53   55 2   
    60   54   60 1   
    61   54   61 1   
    62   62   63 1   
    63   62   66 1   
    64   63   64 1   
    65   63   67 1   
    66   63   68 1   
    67   64   65 2   
    68   64   69 1   
    69   69   70 1   
    70   69   76 1   
    71   70   71 1   
    72   70   73 1   
    73   70   77 1   
    74   71   72 2   
    75   71   83 1   
    76   73   74 1   
    77   73   75 1   
    78   73   78 1   
    79   74   80 1   
    80   74   81 1   
    81   74   82 1   
    82   75   79 1   
    83   83   84 1   
    84   83   91 1   
    85   84   85 1   
    86   84   87 1   
    87   84   92 1   
    88   85   86 2   
    89   85  102 1   
    90   87   88 1   
    91   87   89 1   
    92   87   93 1   
    93   88   90 1   
    94   88   94 1   
    95   88   95 1   
    96   89   96 1   
    97   89   97 1   
    98   89   98 1   
    99   90   99 1   
   100   90  100 1   
   101   90  101 1   
   102  102  103 1   
   103  102  110 1   
   104  103  104 1   
   105  103  106 1   
   106  103  111 1   
   107  104  105 2   
   108  104  114 1   
   109  106  107 1   
   110  106  112 1   
   111  106  113 1   
   112  107  108 1   
   113  107  109 1   
   114  114  115 1   
   115  114  125 1   
   116  115  116 1   
   117  115  118 1   
   118  115  126 1   
   119  116  117 2   
   120  116  134 1   
   121  118  119 1   
   122  118  127 1   
   123  118  128 1   
   124  119  120 ar  
   125  119  121 ar  
   126  120  122 ar  
   127  120  129 1   
   128  121  123 ar  
   129  121  130 1   
   130  122  124 ar  
   131  122  131 1   
   132  123  124 ar  
   133  123  132 1   
   134  124  133 1   
   135  134  135 1   
   136  134  140 1   
   137  135  136 1   
   138  135  138 1   
   139  135  141 1   
   140  136  137 2   
   141  136  148 1   
   142  138  139 1   
   143  138  142 1   
   144  138  143 1   
   145  139  140 1   
   146  139  144 1   
   147  139  145 1   
   148  140  146 1   
   149  140  147 1   
   150  148  149 1   
   151  148  157 1   
   152  149  150 1   
   153  149  152 1   
   154  149  158 1   
   155  150  151 2   
   156  150  163 1   
   157  152  153 1   
   158  152  159 1   
   159  152  160 1   
   160  153  154 1   
   161  153  161 1   
   162  153  162 1   
   163  154  155 1   
   164  154  156 1   
   165  163  164 1   
   166  163  168 1   
   167  164  165 1   
   168  164  166 1   
   169  164  167 1   
   170  170  171 1   
   171  170  172 1   
   172  173  174 1   
   173  173  175 1   
   174  176  177 1   
   175  176  178 1   
@<TRIPOS>SUBSTRUCTURE
     1 MOL         1 TEMP              0 ****  ****    0 ROOT
