@<TRIPOS>MOLECULE
MOL
  178   175     1     0     0
SMALL
resp


@<TRIPOS>ATOM
      1 C1         -1.0790   -5.8890   -3.1530 c3        1 MOL     -0.471278
      2 C2         -2.5200   -5.6740   -2.5220 c         1 MOL      0.650053
      3 O1         -2.8360   -6.3440   -1.5120 o         1 MOL     -0.560410
      4 H1         -0.9660   -5.2460   -4.0250 hc        1 MOL      0.127553
      5 H2         -0.3180   -5.6380   -2.4150 hc        1 MOL      0.127553
      6 H3         -0.9650   -6.9310   -3.4530 hc        1 MOL      0.127553
      7 N1         -3.4220   -4.8990   -3.1370 n         1 MOL     -0.478234
      8 C3         -4.7590   -4.6710   -2.5470 c3        1 MOL     -0.058075
      9 C4         -4.7630   -3.9020   -1.1920 c         1 MOL      0.477378
     10 O2         -4.0890   -2.8890   -0.9450 o         1 MOL     -0.486403
     11 C5         -5.6250   -3.9950   -3.5860 c3        1 MOL      0.017480
     12 C6         -7.1170   -4.1320   -3.3420 c         1 MOL      0.606518
     13 O3         -7.7040   -3.0300   -2.9720 o         1 MOL     -0.705022
     14 O4         -7.6080   -5.2410   -3.6270 o         1 MOL     -0.705022
     15 H4         -3.2290   -4.3020   -3.9240 hn        1 MOL      0.270035
     16 H5         -5.1170   -5.6860   -2.3570 h1        1 MOL      0.116582
     17 H6         -5.4730   -4.5840   -4.5020 hc        1 MOL     -0.005080
     18 H7         -5.5210   -2.9280   -3.7600 hc        1 MOL     -0.005080
     19 N2         -5.6400   -4.3960   -0.2190 n         1 MOL     -0.552515
     20 C7         -5.6950   -3.9750    1.1920 c3        1 MOL      0.547084
     21 C8         -4.2490   -4.2110    1.7560 c         1 MOL      0.293667
     22 O5         -3.4690   -5.0160    1.3870 o         1 MOL     -0.453296
     23 C9         -6.7460   -4.7000    1.9950 c3        1 MOL     -0.377976
     24 H8         -6.1480   -5.1960   -0.5510 hn        1 MOL      0.294434
     25 H9         -6.0100   -2.9300    1.1760 h1        1 MOL      0.004689
     26 H10        -7.7560   -4.4090    1.6870 hc        1 MOL      0.087624
     27 H11        -6.5790   -5.7500    1.7610 hc        1 MOL      0.087624
     28 H12        -6.6370   -4.4990    3.0580 hc        1 MOL      0.087624
     29 N3         -3.7890   -3.3700    2.7560 n         1 MOL     -0.314145
     30 C10        -4.2810   -2.1770    3.3310 c3        1 MOL     -0.076391
     31 C11        -4.1530   -0.8900    2.4260 c         1 MOL      0.421058
     32 O6         -3.2070   -0.6790    1.7130 o         1 MOL     -0.534007
     33 C12        -3.7470   -1.8160    4.6980 c3        1 MOL     -0.131121
     34 C13        -2.2010   -1.8270    4.7950 c         1 MOL      0.738073
     35 O7         -1.4520   -1.5010    3.8710 o         1 MOL     -0.713917
     36 O8         -1.6830   -2.3790    5.7690 o         1 MOL     -0.713917
     37 H13        -2.8400   -3.5420    3.0640 hn        1 MOL      0.264053
     38 H14        -5.3560   -2.3280    3.4190 h1        1 MOL      0.048631
     39 H15        -4.0880   -2.5810    5.3900 hc        1 MOL      0.023251
     40 H16        -4.1080   -0.8560    5.0890 hc        1 MOL      0.023251
     41 N4         -5.1220    0.0090    2.6750 n         1 MOL     -0.360721
     42 C14        -5.1730    1.3630    1.9820 c3        1 MOL      0.038635
     43 C15        -6.4600    1.5790    1.1970 c         1 MOL      0.685112
     44 O9         -7.3230    0.7490    1.1810 o         1 MOL     -0.559084
     45 H17        -5.9210   -0.2680    3.2310 hn        1 MOL      0.241476
     46 H18        -4.3160    1.4220    1.3100 h1        1 MOL      0.089636
     47 H19        -5.1620    2.2050    2.6810 h1        1 MOL      0.089636
     48 N5         -6.5460    2.7060    0.4510 n         1 MOL     -0.736656
     49 C16        -5.6980    3.9290    0.5510 c3        1 MOL      0.303633
     50 C17        -5.3780    4.3900   -0.8760 c         1 MOL      0.525308
     51 O10        -5.2760    5.5800   -1.1610 o         1 MOL     -0.526018
     52 C18        -6.3170    5.0570    1.3440 c3        1 MOL     -0.428793
     53 C19        -6.6800    4.6900    2.7770 c         1 MOL      0.739171
     54 N6         -7.9680    4.5190    3.0800 n         1 MOL     -0.855748
     55 O11        -5.7820    4.5100    3.5490 o         1 MOL     -0.539129
     56 H20        -7.3970    2.7470   -0.0960 hn        1 MOL      0.331959
     57 H21        -4.7370    3.6320    0.9800 h1        1 MOL      0.017970
     58 H22        -7.2000    5.4060    0.8050 hc        1 MOL      0.111337
     59 H23        -5.6300    5.9050    1.3580 hc        1 MOL      0.111337
     60 H24        -8.6690    4.6880    2.3710 hn        1 MOL      0.379083
     61 H25        -8.3010    4.3260    4.0120 hn        1 MOL      0.379083
     62 N7         -5.0080    3.4870   -1.7880 n         1 MOL     -0.314297
     63 C20        -4.6050    3.7810   -3.1890 c3        1 MOL     -0.129600
     64 C21        -3.2480    4.5670   -3.1990 c         1 MOL      0.577316
     65 O12        -2.9690    5.4670   -4.0180 o         1 MOL     -0.546479
     66 H26        -4.9440    2.5320   -1.4800 hn        1 MOL      0.242728
     67 H27        -5.4750    4.2440   -3.6590 h1        1 MOL      0.102049
     68 H28        -4.3590    2.9310   -3.8250 h1        1 MOL      0.102049
     69 N8         -2.3330    4.2050   -2.2540 n         1 MOL     -0.500098
     70 C22        -0.9980    4.7840   -2.2220 c3        1 MOL      0.021366
     71 C23         0.0330    3.7360   -1.7490 c         1 MOL      0.524850
     72 O13        -0.3240    2.5800   -1.5020 o         1 MOL     -0.466586
     73 C24        -1.0390    5.9520   -1.2320 c3        1 MOL      0.360448
     74 C25        -1.9380    7.0820   -1.5740 c3        1 MOL     -0.366912
     75 O14        -1.1830    5.5380    0.1090 oh        1 MOL     -0.577448
     76 H29        -2.5830    3.4840   -1.6050 hn        1 MOL      0.291279
     77 H30        -0.7200    5.1840   -3.2000 h1        1 MOL      0.085543
     78 H31        -0.0430    6.3910   -1.2160 h1        1 MOL     -0.038945
     79 H32        -0.9760    6.2650    0.7020 ho        1 MOL      0.397586
     80 H33        -1.7800    7.9530   -0.9450 hc        1 MOL      0.090355
     81 H34        -1.7520    7.4300   -2.5930 hc        1 MOL      0.090355
     82 H35        -2.9670    6.7290   -1.4910 hc        1 MOL      0.090355
     83 N9          1.3330    4.1170   -1.8960 n         1 MOL     -0.424859
     84 C26         2.5090    3.3680   -1.5360 c3        1 MOL     -0.087014
     85 C27         2.6640    3.7320   -0.0450 c         1 MOL      0.344770
     86 O15         2.6920    4.8940    0.4600 o         1 MOL     -0.550394
     87 C28         3.6580    3.7180   -2.4850 c3        1 MOL      0.155370
     88 C29         4.8960    3.0050   -1.9730 c3        1 MOL      0.143375
     89 C30         3.2730    3.3440   -3.9580 c3        1 MOL     -0.319382
     90 C31         6.2300    3.2770   -2.6990 c3        1 MOL     -0.254880
     91 H36         1.5020    5.0110   -2.3360 hn        1 MOL      0.258473
     92 H37         2.2660    2.3090   -1.6190 h1        1 MOL      0.215915
     93 H38         3.8230    4.7900   -2.3800 hc        1 MOL     -0.007743
     94 H39         4.7610    1.9260   -2.0490 hc        1 MOL     -0.021867
     95 H40         4.9930    3.2360   -0.9110 hc        1 MOL     -0.021867
     96 H41         2.3260    3.8080   -4.2240 hc        1 MOL      0.068941
     97 H42         4.0470    3.6020   -4.6870 hc        1 MOL      0.068941
     98 H43         3.1160    2.2740   -4.1110 hc        1 MOL      0.068941
     99 H44         6.9730    2.7210   -2.1330 hc        1 MOL      0.047203
    100 H45         6.0940    2.8320   -3.6940 hc        1 MOL      0.047203
    101 H46         6.4860    4.3320   -2.7960 hc        1 MOL      0.047203
    102 N10         2.7880    2.6420    0.6920 n         1 MOL     -0.061602
    103 C32         3.1670    2.6090    2.1170 c3        1 MOL     -0.030621
    104 C33         4.2380    1.5650    2.4480 c         1 MOL      0.594231
    105 O16         4.7070    1.5780    3.6080 o         1 MOL     -0.541519
    106 C34         1.9810    2.4510    2.9990 c3        1 MOL     -0.199415
    107 C35         1.0550    1.2230    2.6580 c         1 MOL      0.756853
    108 O17         1.3940    0.0400    2.7380 o         1 MOL     -0.781856
    109 O18        -0.0930    1.4640    2.1690 o         1 MOL     -0.781856
    110 H47         2.7690    1.7400    0.2530 hn        1 MOL      0.228701
    111 H48         3.7520    3.4950    2.3610 h1        1 MOL      0.068927
    112 H49         1.3720    3.3500    2.9390 hc        1 MOL      0.065043
    113 H50         2.2580    2.3630    4.0420 hc        1 MOL      0.065043
    114 N11         4.6410    0.7790    1.4310 n         1 MOL     -0.800564
    115 C36         5.8640    0.1030    1.5650 c3        1 MOL      0.529936
    116 C37         5.8660   -1.0970    0.5960 c         1 MOL      0.101243
    117 O19         6.4610   -0.9900   -0.4940 o         1 MOL     -0.524727
    118 C38         7.1480    0.9720    1.3830 c3        1 MOL     -0.336805
    119 C39         8.3370    0.4740    2.2270 ca        1 MOL      0.115494
    120 C40         9.0600   -0.6730    1.8380 ca        1 MOL     -0.208692
    121 C41         8.5540    1.0270    3.5370 ca        1 MOL     -0.208692
    122 C42        10.1400   -1.1130    2.6560 ca        1 MOL     -0.045700
    123 C43         9.5240    0.5010    4.4240 ca        1 MOL     -0.045700
    124 C44        10.3930   -0.5410    3.9020 ca        1 MOL     -0.224050
    125 H51         3.9860    0.5530    0.6960 hn        1 MOL      0.377907
    126 H52         5.8470   -0.3330    2.5730 h1        1 MOL      0.010342
    127 H53         6.9350    2.0050    1.6720 hc        1 MOL      0.131772
    128 H54         7.4430    1.0640    0.3410 hc        1 MOL      0.131772
    129 H55         8.9600   -1.2230    0.9140 ha        1 MOL      0.139502
    130 H56         7.9230    1.7930    3.9810 ha        1 MOL      0.139502
    131 H57        10.8700   -1.8330    2.3280 ha        1 MOL      0.089739
    132 H58         9.7210    0.9370    5.3960 ha        1 MOL      0.089739
    133 H59        11.1560   -0.8840    4.5750 ha        1 MOL      0.116929
    134 N12         5.1190   -2.2390    0.7210 n         1 MOL      0.053224
    135 C45         5.1770   -3.3780   -0.2280 c3        1 MOL      0.151389
    136 C46         4.6170   -3.1600   -1.6780 c         1 MOL      0.129295
    137 O20         4.7620   -4.1420   -2.4090 o         1 MOL     -0.485340
    138 C47         4.3680   -4.5230    0.4040 c3        1 MOL     -0.153148
    139 C48         4.4450   -4.1620    1.9320 c3        1 MOL     -0.294351
    140 C49         4.4000   -2.6530    1.8910 c3        1 MOL     -0.055950
    141 H60         6.2060   -3.7080   -0.4230 h1        1 MOL      0.064532
    142 H61         3.3470   -4.4770    0.0130 hc        1 MOL      0.102252
    143 H62         4.8580   -5.4680    0.2030 hc        1 MOL      0.102252
    144 H63         3.5400   -4.5300    2.4090 hc        1 MOL      0.098891
    145 H64         5.4220   -4.4710    2.2800 hc        1 MOL      0.098891
    146 H65         3.3710   -2.3460    1.7000 h1        1 MOL      0.100332
    147 H66         4.9070   -2.2290    2.7560 h1        1 MOL      0.100332
    148 N13         4.0810   -1.9740   -2.1110 n         1 MOL     -0.008475
    149 C50         3.8580   -1.6680   -3.5250 c3        1 MOL     -0.092292
    150 C51         5.2150   -1.5830   -4.2090 c         1 MOL      0.492012
    151 O21         5.3790   -2.0040   -5.3930 o         1 MOL     -0.565786
    152 C52         3.0090   -0.4000   -3.6970 c3        1 MOL     -0.093856
    153 C53         1.6700   -0.4130   -2.9610 c3        1 MOL      0.120377
    154 C54         1.8330   -0.3290   -1.4060 c         1 MOL      0.346796
    155 O22         0.9150   -0.7450   -0.6190 o         1 MOL     -0.640957
    156 O23         2.9000    0.1800   -0.9310 o         1 MOL     -0.640957
    157 H67         3.9320   -1.2540   -1.4120 hn        1 MOL      0.254171
    158 H68         3.4130   -2.4830   -4.1000 h1        1 MOL      0.081029
    159 H69         2.9130   -0.2570   -4.7680 hc        1 MOL      0.028881
    160 H70         3.5930    0.4730   -3.3830 hc        1 MOL      0.028881
    161 H71         0.9380   -1.1680   -3.2470 hc        1 MOL     -0.017641
    162 H72         1.1460    0.5060   -3.2170 hc        1 MOL     -0.017641
    163 N14         6.2540   -1.0620   -3.5270 n         1 MOL     -0.140981
    164 C55         7.6440   -1.0940   -3.9750 c3        1 MOL     -0.304765
    165 H73         7.7230   -0.6010   -4.9440 h1        1 MOL      0.109303
    166 H74         8.2720   -0.5740   -3.2520 h1        1 MOL      0.109303
    167 H75         7.9730   -2.1290   -4.0670 h1        1 MOL      0.109303
    168 H76         6.0600   -0.5320   -2.6860 hn        1 MOL      0.213993
    169 Ca1        -0.5380   -1.1190    1.4400 Ca        1 MOL      1.750994
    170 O24        -1.7550   -3.1280    0.1570 oh        1 MOL     -0.845235
    171 H77        -2.5830   -3.0390   -0.3180 ho        1 MOL      0.414864
    172 H78        -1.5890   -4.0750    0.1870 ho        1 MOL      0.414864
    173 O25         0.6660   -3.4230    2.2290 oh        1 MOL     -0.845235
    174 H79         0.2190   -4.2360    2.4390 ho        1 MOL      0.414864
    175 H80         1.0090   -3.1040    3.0600 ho        1 MOL      0.414864
    176 O26        -1.7290    0.0120   -0.9200 oh        1 MOL     -0.845235
    177 H81        -1.3400    0.8230   -1.2670 ho        1 MOL      0.414864
    178 H82        -1.9140   -0.5200   -1.6900 ho        1 MOL      0.414864
@<TRIPOS>BOND
     1    1    2 1   
     2    1    4 1   
     3    1    5 1   
     4    1    6 1   
     5    2    3 2   
     6    2    7 1   
     7    7    8 1   
     8    7   15 1   
     9    8    9 1   
    10    8   11 1   
    11    8   16 1   
    12    9   10 2   
    13    9   19 1   
    14   11   12 1   
    15   11   17 1   
    16   11   18 1   
    17   12   13 1   
    18   12   14 1   
    19   19   20 1   
    20   19   24 1   
    21   20   21 1   
    22   20   23 1   
    23   20   25 1   
    24   21   22 2   
    25   21   29 1   
    26   23   26 1   
    27   23   27 1   
    28   23   28 1   
    29   29   30 1   
    30   29   37 1   
    31   30   31 1   
    32   30   33 1   
    33   30   38 1   
    34   31   32 2   
    35   31   41 1   
    36   33   34 1   
    37   33   39 1   
    38   33   40 1   
    39   34   35 1   
    40   34   36 1   
    41   41   42 1   
    42   41   45 1   
    43   42   43 1   
    44   42   46 1   
    45   42   47 1   
    46   43   44 2   
    47   43   48 1   
    48   48   49 1   
    49   48   56 1   
    50   49   50 1   
    51   49   52 1   
    52   49   57 1   
    53   50   51 2   
    54   50   62 1   
    55   52   53 1   
    56   52   58 1   
    57   52   59 1   
    58   53   54 1   
    59   53   55 2   
    60   54   60 1   
    61   54   61 1   
    62   62   63 1   
    63   62   66 1   
    64   63   64 1   
    65   63   67 1   
    66   63   68 1   
    67   64   65 2   
    68   64   69 1   
    69   69   70 1   
    70   69   76 1   
    71   70   71 1   
    72   70   73 1   
    73   70   77 1   
    74   71   72 2   
    75   71   83 1   
    76   73   74 1   
    77   73   75 1   
    78   73   78 1   
    79   74   80 1   
    80   74   81 1   
    81   74   82 1   
    82   75   79 1   
    83   83   84 1   
    84   83   91 1   
    85   84   85 1   
    86   84   87 1   
    87   84   92 1   
    88   85   86 2   
    89   85  102 1   
    90   87   88 1   
    91   87   89 1   
    92   87   93 1   
    93   88   90 1   
    94   88   94 1   
    95   88   95 1   
    96   89   96 1   
    97   89   97 1   
    98   89   98 1   
    99   90   99 1   
   100   90  100 1   
   101   90  101 1   
   102  102  103 1   
   103  102  110 1   
   104  103  104 1   
   105  103  106 1   
   106  103  111 1   
   107  104  105 2   
   108  104  114 1   
   109  106  107 1   
   110  106  112 1   
   111  106  113 1   
   112  107  108 1   
   113  107  109 1   
   114  114  115 1   
   115  114  125 1   
   116  115  116 1   
   117  115  118 1   
   118  115  126 1   
   119  116  117 2   
   120  116  134 1   
   121  118  119 1   
   122  118  127 1   
   123  118  128 1   
   124  119  120 ar  
   125  119  121 ar  
   126  120  122 ar  
   127  120  129 1   
   128  121  123 ar  
   129  121  130 1   
   130  122  124 ar  
   131  122  131 1   
   132  123  124 ar  
   133  123  132 1   
   134  124  133 1   
   135  134  135 1   
   136  134  140 1   
   137  135  136 1   
   138  135  138 1   
   139  135  141 1   
   140  136  137 2   
   141  136  148 1   
   142  138  139 1   
   143  138  142 1   
   144  138  143 1   
   145  139  140 1   
   146  139  144 1   
   147  139  145 1   
   148  140  146 1   
   149  140  147 1   
   150  148  149 1   
   151  148  157 1   
   152  149  150 1   
   153  149  152 1   
   154  149  158 1   
   155  150  151 2   
   156  150  163 1   
   157  152  153 1   
   158  152  159 1   
   159  152  160 1   
   160  153  154 1   
   161  153  161 1   
   162  153  162 1   
   163  154  155 1   
   164  154  156 1   
   165  163  164 1   
   166  163  168 1   
   167  164  165 1   
   168  164  166 1   
   169  164  167 1   
   170  170  171 1   
   171  170  172 1   
   172  173  174 1   
   173  173  175 1   
   174  176  177 1   
   175  176  178 1   
@<TRIPOS>SUBSTRUCTURE
     1 MOL         1 TEMP              0 ****  ****    0 ROOT
