@<TRIPOS>MOLECULE
MOL
  184   179     1     0     0
SMALL
resp


@<TRIPOS>ATOM
      1 C1          3.2580   -2.1920    4.2220 c3        1 MOL     -0.475025
      2 C2          4.3200   -1.1780    3.8090 c         1 MOL      0.730558
      3 O1          4.0320   -0.0880    3.3610 o         1 MOL     -0.588413
      4 H1          2.3010   -1.6840    4.3490 hc        1 MOL      0.125931
      5 H2          3.1640   -2.9570    3.4510 hc        1 MOL      0.125931
      6 H3          3.5480   -2.6590    5.1640 hc        1 MOL      0.125931
      7 N1          5.5980   -1.6460    3.8830 n         1 MOL     -0.542930
      8 C3          6.6740   -0.6980    3.7670 c3        1 MOL      0.263235
      9 C4          7.4230   -0.7970    2.3810 c         1 MOL      0.406819
     10 O2          7.5450    0.1710    1.5810 o         1 MOL     -0.531777
     11 C5          7.5640   -0.7530    5.0000 c3        1 MOL     -0.319769
     12 C6          7.9040   -2.0870    5.6270 c         1 MOL      0.736737
     13 O3          7.8970   -3.1680    4.9840 o         1 MOL     -0.711838
     14 O4          8.4590   -2.0790    6.7500 o         1 MOL     -0.711838
     15 H4          5.7060   -2.5900    4.2180 hn        1 MOL      0.258417
     16 H5          6.2180    0.2890    3.7270 h1        1 MOL      0.015598
     17 H6          6.9920   -0.2990    5.8210 hc        1 MOL      0.059819
     18 H7          8.4730   -0.1810    4.8410 hc        1 MOL      0.059819
     19 N2          7.8150   -2.0550    2.1040 n         1 MOL     -0.431197
     20 C7          8.3800   -2.5380    0.8350 c3        1 MOL      0.460183
     21 C8          7.5490   -2.1320   -0.4890 c         1 MOL      0.257215
     22 O5          8.1230   -1.7620   -1.5380 o         1 MOL     -0.513248
     23 C9          9.8740   -2.1860    0.7330 c3        1 MOL     -0.243400
     24 H8          7.7310   -2.7430    2.8380 hn        1 MOL      0.220310
     25 H9          8.3340   -3.6300    0.8110 h1        1 MOL     -0.008963
     26 H10        10.0330   -1.1160    0.6770 hc        1 MOL      0.047160
     27 H11        10.4060   -2.7750    1.4850 hc        1 MOL      0.047160
     28 H12        10.3370   -2.6850   -0.1120 hc        1 MOL      0.047160
     29 N3          6.2610   -2.1540   -0.3990 n         1 MOL     -0.396706
     30 C10         5.4000   -1.9500   -1.5280 c3        1 MOL      0.511161
     31 C11         5.6150   -0.6110   -2.3170 c         1 MOL      0.275392
     32 O6          5.4780   -0.5740   -3.5130 o         1 MOL     -0.494295
     33 C12         5.2660   -3.2400   -2.3730 c3        1 MOL     -0.306419
     34 C13         3.9010   -3.4190   -3.1350 c         1 MOL      0.772382
     35 O7          3.9630   -3.7720   -4.3730 o         1 MOL     -0.742667
     36 O8          2.7730   -3.3940   -2.5180 o         1 MOL     -0.742667
     37 H13         5.8100   -2.5340    0.4190 hn        1 MOL      0.223355
     38 H14         4.3800   -1.8600   -1.1610 h1        1 MOL     -0.057732
     39 H15         5.3970   -4.1200   -1.7450 hc        1 MOL      0.054314
     40 H16         6.0110   -3.1630   -3.1720 hc        1 MOL      0.054314
     41 N4          5.9270    0.4630   -1.6090 n         1 MOL      0.013274
     42 C14         6.4230    1.7770   -2.0830 c3        1 MOL     -0.342242
     43 C15         5.2230    2.6680   -2.6530 c         1 MOL      0.605079
     44 O9          5.5530    3.6400   -3.2770 o         1 MOL     -0.586059
     45 H17         5.9350    0.3170   -0.6170 hn        1 MOL      0.121972
     46 H18         7.0450    1.6020   -2.9580 h1        1 MOL      0.158499
     47 H19         6.9970    2.2130   -1.2580 h1        1 MOL      0.158499
     48 N5          3.9530    2.2660   -2.5990 n         1 MOL     -0.264954
     49 C16         2.7280    2.9640   -3.0650 c3        1 MOL     -0.204370
     50 C17         2.4700    4.2230   -2.1300 c         1 MOL      0.515439
     51 O10         2.6100    4.0850   -0.9320 o         1 MOL     -0.510547
     52 C18         1.5130    2.0980   -2.8930 c3        1 MOL      0.021274
     53 C19         0.2850    2.6370   -3.6760 c         1 MOL      0.417532
     54 N6         -0.7020    1.7790   -3.9620 n         1 MOL     -0.698547
     55 O11         0.1270    3.7640   -4.0470 o         1 MOL     -0.502221
     56 H20         3.8420    1.4190   -2.0740 hn        1 MOL      0.138930
     57 H21         2.7570    3.2990   -4.0980 h1        1 MOL      0.096932
     58 H22         1.2890    2.1280   -1.8310 hc        1 MOL      0.112065
     59 H23         1.7560    1.0770   -3.1790 hc        1 MOL      0.112065
     60 H24        -0.6570    0.8540   -3.5510 hn        1 MOL      0.342652
     61 H25        -1.4270    2.1230   -4.5730 hn        1 MOL      0.342652
     62 N7          2.1350    5.3690   -2.7500 n         1 MOL     -0.216473
     63 C20         1.9880    6.6640   -1.9870 c3        1 MOL     -0.359556
     64 C21         0.5820    6.8020   -1.4530 c         1 MOL      0.688409
     65 O12        -0.3810    6.4990   -2.1460 o         1 MOL     -0.523393
     66 H26         2.1120    5.3940   -3.7560 hn        1 MOL      0.251046
     67 H27         2.0330    7.4730   -2.7250 h1        1 MOL      0.131371
     68 H28         2.8400    6.7560   -1.3180 h1        1 MOL      0.131371
     69 N8          0.4690    7.2030   -0.2130 n         1 MOL     -0.444620
     70 C22        -0.8050    7.7540    0.2630 c3        1 MOL     -0.373803
     71 C23        -1.8220    6.7720    0.7510 c         1 MOL      0.566002
     72 O13        -2.8790    7.2230    1.1390 o         1 MOL     -0.564073
     73 C24        -0.6380    9.0200    1.2210 c3        1 MOL      0.561889
     74 C25         0.1840    8.6200    2.4630 c3        1 MOL     -0.419871
     75 O14         0.0370   10.1010    0.6180 oh        1 MOL     -0.677335
     76 H29         1.3170    7.3220    0.3370 hn        1 MOL      0.289514
     77 H30        -1.1910    8.2540   -0.6270 h1        1 MOL      0.162906
     78 H31        -1.6360    9.1920    1.6180 h1        1 MOL      0.020726
     79 H32         0.9700    9.9110    0.5070 ho        1 MOL      0.407438
     80 H33         0.5250    9.5210    2.9790 hc        1 MOL      0.096352
     81 H34        -0.5000    8.2240    3.2130 hc        1 MOL      0.096352
     82 H35         0.9870    7.9330    2.1890 hc        1 MOL      0.096352
     83 N9         -1.4570    5.4760    0.8850 n         1 MOL     -0.180564
     84 C26        -2.2090    4.2980    1.3150 c3        1 MOL     -0.024500
     85 C27        -2.0100    3.1980    0.3190 c         1 MOL      0.281261
     86 O15        -1.3120    3.4220   -0.7170 o         1 MOL     -0.359598
     87 C28        -1.7840    3.8870    2.8140 c3        1 MOL     -0.132494
     88 C29        -0.3770    3.2330    2.8830 c3        1 MOL     -0.092680
     89 C30        -2.0420    4.9500    3.8760 c3        1 MOL     -0.147350
     90 C31        -0.1200    2.3170    4.0880 c3        1 MOL     -0.122050
     91 H36        -0.5600    5.3430    0.4400 hn        1 MOL      0.200300
     92 H37        -3.2550    4.6050    1.2560 h1        1 MOL      0.092052
     93 H38        -2.4630    3.0890    3.1090 hc        1 MOL      0.057500
     94 H39         0.4310    3.9620    2.7790 hc        1 MOL      0.085897
     95 H40        -0.2980    2.5940    2.0050 hc        1 MOL      0.085897
     96 H41        -3.0880    5.1330    4.1130 hc        1 MOL      0.051655
     97 H42        -1.6390    4.6460    4.8470 hc        1 MOL      0.051655
     98 H43        -1.6610    5.9260    3.5690 hc        1 MOL      0.051655
     99 H44         0.9120    2.2870    4.4530 hc        1 MOL      0.043907
    100 H45        -0.5650    2.6120    5.0420 hc        1 MOL      0.043907
    101 H46        -0.3310    1.2550    3.9630 hc        1 MOL      0.043907
    102 N10        -2.6490    2.0600    0.4750 n         1 MOL     -0.247727
    103 C32        -2.5000    0.8280   -0.3990 c3        1 MOL     -0.118481
    104 C33        -3.7890    0.0170   -0.3210 c         1 MOL      0.664725
    105 O16        -3.7770   -1.2000   -0.5540 o         1 MOL     -0.605448
    106 C34        -1.2140    0.0350   -0.0340 c3        1 MOL     -0.002462
    107 C35        -0.5760   -0.7560   -1.2050 c         1 MOL      0.450360
    108 O17        -1.1210   -0.7980   -2.2920 o         1 MOL     -0.647905
    109 O18         0.4310   -1.4960   -0.9860 o         1 MOL     -0.647905
    110 H47        -3.1280    1.8570    1.3420 hn        1 MOL      0.219467
    111 H48        -2.4650    1.1700   -1.4300 h1        1 MOL      0.077005
    112 H49        -1.3250   -0.5800    0.8530 hc        1 MOL      0.048792
    113 H50        -0.4840    0.8050    0.2180 hc        1 MOL      0.048792
    114 N11        -4.9050    0.7170   -0.0190 n         1 MOL     -0.466171
    115 C36        -6.2870    0.1010    0.0200 c3        1 MOL      0.183619
    116 C37        -6.2930   -1.2160    0.8440 c         1 MOL      0.192290
    117 O19        -5.9380   -1.2060    2.0500 o         1 MOL     -0.429562
    118 C38        -7.2720    1.1320    0.6080 c3        1 MOL     -0.190772
    119 C39        -8.7860    0.7760    0.5200 ca        1 MOL      0.060338
    120 C40        -9.4300    0.8660   -0.7420 ca        1 MOL     -0.125239
    121 C41        -9.3800    0.1890    1.6080 ca        1 MOL     -0.125239
    122 C42       -10.7580    0.4180   -0.9000 ca        1 MOL     -0.115534
    123 C43       -10.6990   -0.3380    1.4560 ca        1 MOL     -0.115534
    124 C44       -11.3260   -0.1700    0.2010 ca        1 MOL     -0.114673
    125 H51        -4.7910    1.7010    0.1900 hn        1 MOL      0.240809
    126 H52        -6.4150   -0.1070   -1.0460 h1        1 MOL      0.022472
    127 H53        -7.1500    2.1370    0.2150 hc        1 MOL      0.090100
    128 H54        -7.0100    1.2060    1.6680 hc        1 MOL      0.090100
    129 H55        -8.9090    1.2050   -1.6290 ha        1 MOL      0.114530
    130 H56        -8.7440    0.0390    2.4770 ha        1 MOL      0.114530
    131 H57       -11.1590    0.4130   -1.9070 ha        1 MOL      0.117773
    132 H58       -11.1910   -0.8950    2.2460 ha        1 MOL      0.117773
    133 H59       -12.3800   -0.4080    0.2150 ha        1 MOL      0.093546
    134 N12        -6.6900   -2.2790    0.1660 n         1 MOL      0.032659
    135 C45        -6.8670   -3.6160    0.7560 c3        1 MOL      0.117259
    136 C46        -5.6810   -4.1130    1.6130 c         1 MOL      0.370415
    137 O20        -5.9050   -4.7970    2.6450 o         1 MOL     -0.504807
    138 C47        -7.1850   -4.5540   -0.4010 c3        1 MOL     -0.087762
    139 C48        -7.7910   -3.5940   -1.4040 c3        1 MOL     -0.002394
    140 C49        -7.1100   -2.3120   -1.2190 c3        1 MOL     -0.012695
    141 H60        -7.6760   -3.6300    1.4950 h1        1 MOL      0.038197
    142 H61        -6.2750   -4.9260   -0.8780 hc        1 MOL      0.040208
    143 H62        -7.8900   -5.3210   -0.0830 hc        1 MOL      0.040208
    144 H63        -7.6060   -3.8900   -2.4380 hc        1 MOL      0.011897
    145 H64        -8.8730   -3.5230   -1.2750 hc        1 MOL      0.011897
    146 H65        -6.1660   -2.4080   -1.7420 h1        1 MOL      0.024154
    147 H66        -7.8020   -1.5210   -1.4950 h1        1 MOL      0.024154
    148 N13        -4.4100   -3.7190    1.2800 n         1 MOL     -0.404339
    149 C50        -3.2570   -4.1330    2.1470 c3        1 MOL     -0.026727
    150 C51        -3.0920   -3.3830    3.5030 c         1 MOL      0.437848
    151 O21        -2.3580   -3.8420    4.4010 o         1 MOL     -0.530070
    152 C52        -1.9720   -3.9500    1.3040 c3        1 MOL     -0.013020
    153 C53        -1.5280   -5.3560    0.8640 c3        1 MOL     -0.167943
    154 C54        -0.1980   -5.3640    0.0950 c         1 MOL      0.807488
    155 O22         0.5900   -6.3720    0.1710 o         1 MOL     -0.739989
    156 O23         0.1510   -4.3410   -0.6090 o         1 MOL     -0.739989
    157 H67        -4.2400   -3.1290    0.4790 hn        1 MOL      0.314680
    158 H68        -3.3710   -5.1710    2.4510 h1        1 MOL      0.106705
    159 H69        -1.2280   -3.5460    2.0040 hc        1 MOL      0.059383
    160 H70        -2.0800   -3.3080    0.4400 hc        1 MOL      0.059383
    161 H71        -2.2090   -5.7940    0.1360 hc        1 MOL      0.009871
    162 H72        -1.3740   -5.9630    1.7510 hc        1 MOL      0.009871
    163 N14        -3.7050   -2.2000    3.5990 n         1 MOL     -0.207426
    164 C55        -3.7860   -1.3630    4.8620 c3        1 MOL     -0.087693
    165 H73        -4.8310   -1.1510    5.0900 h1        1 MOL      0.061359
    166 H74        -3.3370   -1.9100    5.6920 h1        1 MOL      0.061359
    167 H75        -3.2500   -0.4260    4.7130 h1        1 MOL      0.061359
    168 H76        -4.2790   -1.9240    2.8140 hn        1 MOL      0.175387
    169 Ca1         0.1200   -3.3170   -2.9220 Ca        1 MOL      1.759469
    170 O24         1.5890   -5.0790   -4.3030 oh        1 MOL     -0.837261
    171 H77         2.4890   -4.7680   -4.4490 ho        1 MOL      0.402268
    172 H78         1.6890   -5.9850   -4.0230 ho        1 MOL      0.402268
    173 O25        -1.4180   -2.9480   -4.8930 oh        1 MOL     -0.837261
    174 H79        -2.0690   -3.6500   -4.8840 ho        1 MOL      0.402268
    175 H80        -1.7220   -2.3320   -5.5550 ho        1 MOL      0.402268
    176 O26        -0.9290   -5.7090   -3.5430 oh        1 MOL     -0.837261
    177 H81        -0.9120   -5.9400   -4.4770 ho        1 MOL      0.402268
    178 H82        -1.7620   -6.0530   -3.2270 ho        1 MOL      0.402268
    179 O27        -2.5400   -3.7000   -2.3120 oh        1 MOL     -0.837261
    180 H83        -3.2190   -3.8680   -2.9790 ho        1 MOL      0.402268
    181 H84        -2.8970   -2.9880   -1.7810 ho        1 MOL      0.402268
    182 O28         1.0380   -1.2590   -4.6550 oh        1 MOL     -0.837261
    183 H85         1.9340   -1.2030   -4.9930 ho        1 MOL      0.402268
    184 H86         0.5440   -0.6480   -5.1910 ho        1 MOL      0.402268
@<TRIPOS>BOND
     1    1    2 1   
     2    1    4 1   
     3    1    5 1   
     4    1    6 1   
     5    2    3 2   
     6    2    7 1   
     7    7    8 1   
     8    7   15 1   
     9    8    9 1   
    10    8   11 1   
    11    8   16 1   
    12    9   10 2   
    13    9   19 1   
    14   11   12 1   
    15   11   17 1   
    16   11   18 1   
    17   12   13 1   
    18   12   14 1   
    19   19   20 1   
    20   19   24 1   
    21   20   21 1   
    22   20   23 1   
    23   20   25 1   
    24   21   22 2   
    25   21   29 1   
    26   23   26 1   
    27   23   27 1   
    28   23   28 1   
    29   29   30 1   
    30   29   37 1   
    31   30   31 1   
    32   30   33 1   
    33   30   38 1   
    34   31   32 2   
    35   31   41 1   
    36   33   34 1   
    37   33   39 1   
    38   33   40 1   
    39   34   35 1   
    40   34   36 1   
    41   41   42 1   
    42   41   45 1   
    43   42   43 1   
    44   42   46 1   
    45   42   47 1   
    46   43   44 2   
    47   43   48 1   
    48   48   49 1   
    49   48   56 1   
    50   49   50 1   
    51   49   52 1   
    52   49   57 1   
    53   50   51 2   
    54   50   62 1   
    55   52   53 1   
    56   52   58 1   
    57   52   59 1   
    58   53   54 1   
    59   53   55 2   
    60   54   60 1   
    61   54   61 1   
    62   62   63 1   
    63   62   66 1   
    64   63   64 1   
    65   63   67 1   
    66   63   68 1   
    67   64   65 2   
    68   64   69 1   
    69   69   70 1   
    70   69   76 1   
    71   70   71 1   
    72   70   73 1   
    73   70   77 1   
    74   71   72 2   
    75   71   83 1   
    76   73   74 1   
    77   73   75 1   
    78   73   78 1   
    79   74   80 1   
    80   74   81 1   
    81   74   82 1   
    82   75   79 1   
    83   83   84 1   
    84   83   91 1   
    85   84   85 1   
    86   84   87 1   
    87   84   92 1   
    88   85   86 2   
    89   85  102 1   
    90   87   88 1   
    91   87   89 1   
    92   87   93 1   
    93   88   90 1   
    94   88   94 1   
    95   88   95 1   
    96   89   96 1   
    97   89   97 1   
    98   89   98 1   
    99   90   99 1   
   100   90  100 1   
   101   90  101 1   
   102  102  103 1   
   103  102  110 1   
   104  103  104 1   
   105  103  106 1   
   106  103  111 1   
   107  104  105 2   
   108  104  114 1   
   109  106  107 1   
   110  106  112 1   
   111  106  113 1   
   112  107  108 1   
   113  107  109 1   
   114  114  115 1   
   115  114  125 1   
   116  115  116 1   
   117  115  118 1   
   118  115  126 1   
   119  116  117 2   
   120  116  134 1   
   121  118  119 1   
   122  118  127 1   
   123  118  128 1   
   124  119  120 ar  
   125  119  121 ar  
   126  120  122 ar  
   127  120  129 1   
   128  121  123 ar  
   129  121  130 1   
   130  122  124 ar  
   131  122  131 1   
   132  123  124 ar  
   133  123  132 1   
   134  124  133 1   
   135  134  135 1   
   136  134  140 1   
   137  135  136 1   
   138  135  138 1   
   139  135  141 1   
   140  136  137 2   
   141  136  148 1   
   142  138  139 1   
   143  138  142 1   
   144  138  143 1   
   145  139  140 1   
   146  139  144 1   
   147  139  145 1   
   148  140  146 1   
   149  140  147 1   
   150  148  149 1   
   151  148  157 1   
   152  149  150 1   
   153  149  152 1   
   154  149  158 1   
   155  150  151 2   
   156  150  163 1   
   157  152  153 1   
   158  152  159 1   
   159  152  160 1   
   160  153  154 1   
   161  153  161 1   
   162  153  162 1   
   163  154  155 1   
   164  154  156 1   
   165  163  164 1   
   166  163  168 1   
   167  164  165 1   
   168  164  166 1   
   169  164  167 1   
   170  170  171 1   
   171  170  172 1   
   172  173  174 1   
   173  173  175 1   
   174  176  177 1   
   175  176  178 1   
   176  179  180 1   
   177  179  181 1   
   178  182  183 1   
   179  182  184 1   
@<TRIPOS>SUBSTRUCTURE
     1 MOL         1 TEMP              0 ****  ****    0 ROOT
