@<TRIPOS>MOLECULE
MOL
  178   175     1     0     0
SMALL
resp


@<TRIPOS>ATOM
      1 C1          4.5890   -2.3570    2.5900 c3        1 MOL     -0.461415
      2 C2          5.7830   -1.4070    2.6310 c         1 MOL      0.635560
      3 O1          5.7170   -0.1700    2.8180 o         1 MOL     -0.591728
      4 H1          4.9400   -3.3730    2.4120 hc        1 MOL      0.123670
      5 H2          4.0590   -2.3170    3.5420 hc        1 MOL      0.123670
      6 H3          3.9150   -2.0590    1.7860 hc        1 MOL      0.123670
      7 N1          6.9460   -2.0080    2.4210 n         1 MOL     -0.474811
      8 C3          8.1980   -1.2960    2.3490 c3        1 MOL      0.171186
      9 C4          8.3000   -0.9020    0.8990 c         1 MOL      0.441542
     10 O2          8.3970   -1.7970    0.0930 o         1 MOL     -0.525379
     11 C5          9.3200   -2.2180    2.8970 c3        1 MOL     -0.120221
     12 C6         10.5670   -1.5030    3.3470 c         1 MOL      0.693545
     13 O3         10.6760   -0.2640    3.0460 o         1 MOL     -0.737238
     14 O4         11.4300   -2.1660    3.9700 o         1 MOL     -0.737238
     15 H4          6.8840   -3.0130    2.3340 hn        1 MOL      0.268012
     16 H5          8.0910   -0.4370    3.0170 h1        1 MOL      0.036066
     17 H6          9.5360   -3.0450    2.2230 hc        1 MOL      0.002723
     18 H7          8.8260   -2.6990    3.7530 hc        1 MOL      0.002723
     19 N2          8.2860    0.4300    0.6700 n         1 MOL     -0.393993
     20 C7          8.3100    1.0210   -0.6460 c3        1 MOL      0.339348
     21 C8          6.8910    0.8270   -1.2920 c         1 MOL      0.363445
     22 O5          6.0440    1.7090   -1.4840 o         1 MOL     -0.501157
     23 C9          8.8560    2.4560   -0.5860 c3        1 MOL     -0.297521
     24 H8          8.4080    1.0710    1.4420 hn        1 MOL      0.271766
     25 H9          9.0510    0.6090   -1.3220 h1        1 MOL     -0.002987
     26 H10         8.6890    2.9140   -1.5580 hc        1 MOL      0.066216
     27 H11         8.1970    3.0630    0.0300 hc        1 MOL      0.066216
     28 H12         9.9000    2.4410   -0.2650 hc        1 MOL      0.066216
     29 N3          6.4890   -0.4340   -1.3800 n         1 MOL     -0.320491
     30 C10         5.0610   -0.8210   -1.6080 c3        1 MOL      0.016569
     31 C11         4.5410   -0.3690   -2.8940 c         1 MOL      0.580966
     32 O6          5.2460   -0.1890   -3.8040 o         1 MOL     -0.530324
     33 C12         5.0710   -2.3550   -1.5270 c3        1 MOL      0.086712
     34 C13         3.7110   -2.9430   -1.6810 c         1 MOL      0.475862
     35 O7          2.7860   -2.6310   -0.9110 o         1 MOL     -0.701921
     36 O8          3.4450   -3.7610   -2.5900 o         1 MOL     -0.701921
     37 H13         7.1780   -1.1640   -1.3680 hn        1 MOL      0.185984
     38 H14         4.4910   -0.4010   -0.7850 h1        1 MOL      0.077278
     39 H15         5.4690   -2.5800   -0.5410 hc        1 MOL     -0.002688
     40 H16         5.7480   -2.7070   -2.3040 hc        1 MOL     -0.002688
     41 N4          3.1890   -0.0880   -2.8980 n         1 MOL     -0.186525
     42 C14         2.4620    0.3000   -4.0360 c3        1 MOL     -0.199364
     43 C15         2.2910    1.8510   -4.1490 c         1 MOL      0.419621
     44 O9          3.2210    2.5650   -4.4060 o         1 MOL     -0.471171
     45 H17         2.7760   -0.0630   -1.9840 hn        1 MOL      0.232353
     46 H18         1.4910   -0.1910   -4.0350 h1        1 MOL      0.069976
     47 H19         3.0190   -0.0700   -4.8970 h1        1 MOL      0.069976
     48 N5          1.1310    2.4210   -3.7760 n         1 MOL     -0.369065
     49 C16         0.8160    3.8670   -3.6500 c3        1 MOL      0.109396
     50 C17         1.0520    4.3070   -2.2230 c         1 MOL      0.630350
     51 O10         1.0550    3.4250   -1.3560 o         1 MOL     -0.496018
     52 C18        -0.6260    4.0400   -4.1010 c3        1 MOL     -0.245035
     53 C19        -1.0420    5.3480   -4.6050 c         1 MOL      0.638430
     54 N6         -1.2790    5.4810   -5.8980 n         1 MOL     -0.775765
     55 O11        -1.3120    6.2860   -3.8480 o         1 MOL     -0.570098
     56 H20         0.4090    1.7430   -3.5750 hn        1 MOL      0.266289
     57 H21         1.5100    4.3760   -4.3320 h1        1 MOL      0.031011
     58 H22        -1.3030    3.6040   -3.3660 hc        1 MOL      0.074603
     59 H23        -0.6780    3.3600   -4.9540 hc        1 MOL      0.074603
     60 H24        -0.9270    4.7560   -6.5020 hn        1 MOL      0.361052
     61 H25        -1.5880    6.3790   -6.2590 hn        1 MOL      0.361052
     62 N7          1.0880    5.5420   -1.8430 n         1 MOL     -0.650186
     63 C20         1.0160    5.9280   -0.3580 c3        1 MOL      0.338764
     64 C21        -0.4530    5.7700    0.2010 c         1 MOL      0.283792
     65 O12        -1.4450    5.3660   -0.4770 o         1 MOL     -0.350910
     66 H26         0.8540    6.2410   -2.5380 hn        1 MOL      0.317649
     67 H27         1.3600    6.9290   -0.1350 h1        1 MOL     -0.002507
     68 H28         1.7070    5.2890    0.1910 h1        1 MOL     -0.002507
     69 N8         -0.5940    6.1030    1.5030 n         1 MOL     -0.285708
     70 C22        -1.9190    6.1080    2.2500 c3        1 MOL     -0.545191
     71 C23        -2.3210    4.7630    2.8690 c         1 MOL      0.603801
     72 O13        -3.5160    4.3820    2.9820 o         1 MOL     -0.574241
     73 C24        -2.0320    7.2080    3.2670 c3        1 MOL      0.558751
     74 C25        -1.3030    7.0360    4.5510 c3        1 MOL     -0.464703
     75 O14        -1.6450    8.4390    2.7520 oh        1 MOL     -0.668360
     76 H29         0.2000    6.3990    2.0480 hn        1 MOL      0.236531
     77 H30        -2.6360    6.3430    1.4570 h1        1 MOL      0.277803
     78 H31        -3.0950    7.3030    3.5130 h1        1 MOL      0.028625
     79 H32        -0.7110    8.5920    2.6180 ho        1 MOL      0.406836
     80 H33        -1.5090    7.8630    5.2240 hc        1 MOL      0.111669
     81 H34        -1.4710    6.0700    5.0170 hc        1 MOL      0.111669
     82 H35        -0.2390    7.1710    4.3620 hc        1 MOL      0.111669
     83 N9         -1.3640    3.8950    3.1160 n         1 MOL     -0.207386
     84 C26        -1.5850    2.4600    3.4760 c3        1 MOL     -0.038120
     85 C27        -1.4140    1.6180    2.2120 c         1 MOL      0.690885
     86 O15        -0.4150    1.7580    1.5210 o         1 MOL     -0.542634
     87 C28        -0.6940    1.9580    4.6250 c3        1 MOL      0.198572
     88 C29        -0.8490    2.6600    5.9980 c3        1 MOL     -0.010825
     89 C30        -0.7720    0.3860    4.7560 c3        1 MOL     -0.285479
     90 C31        -2.3350    2.8570    6.3580 c3        1 MOL     -0.033462
     91 H36        -0.4180    4.2540    3.1070 hn        1 MOL      0.205514
     92 H37        -2.5720    2.2020    3.8700 h1        1 MOL      0.042175
     93 H38         0.3250    2.1600    4.2760 hc        1 MOL     -0.018623
     94 H39        -0.4690    3.6790    5.9590 hc        1 MOL     -0.013178
     95 H40        -0.3970    2.0390    6.7660 hc        1 MOL     -0.013178
     96 H41        -0.1390   -0.0080    5.5600 hc        1 MOL      0.081151
     97 H42        -1.7660    0.0090    4.9900 hc        1 MOL      0.081151
     98 H43        -0.2520   -0.0750    3.9170 hc        1 MOL      0.081151
     99 H44        -2.8580    1.9060    6.4150 hc        1 MOL      0.000970
    100 H45        -2.4060    3.3740    7.3080 hc        1 MOL      0.000970
    101 H46        -2.7800    3.5940    5.6860 hc        1 MOL      0.000970
    102 N10        -2.3430    0.7140    1.8470 n         1 MOL     -0.856313
    103 C32        -2.1040   -0.2990    0.7520 c3        1 MOL      0.545841
    104 C33        -3.3870   -0.6590    0.0180 c         1 MOL      0.289497
    105 O16        -3.6580   -1.7780   -0.4290 o         1 MOL     -0.380927
    106 C34        -1.2710   -1.5260    1.2130 c3        1 MOL     -0.194739
    107 C35        -0.6580   -2.3710    0.0900 c         1 MOL      0.726187
    108 O17        -0.3290   -1.8080   -0.9360 o         1 MOL     -0.725292
    109 O18        -0.3900   -3.5500    0.3090 o         1 MOL     -0.725292
    110 H47        -3.1760    0.6550    2.4170 hn        1 MOL      0.355764
    111 H48        -1.4590    0.1880    0.0300 h1        1 MOL      0.008578
    112 H49        -1.8880   -2.2680    1.7100 hc        1 MOL      0.028705
    113 H50        -0.4760   -1.2160    1.8920 hc        1 MOL      0.028705
    114 N11        -4.3460    0.2710   -0.1100 n         1 MOL     -0.450042
    115 C36        -5.6820    0.0260   -0.6470 c3        1 MOL      0.192761
    116 C37        -6.3550   -0.9790    0.2920 c         1 MOL      0.331332
    117 O19        -6.4100   -0.8100    1.4820 o         1 MOL     -0.503479
    118 C38        -6.5540    1.3100   -0.7800 c3        1 MOL     -0.282400
    119 C39        -5.8490    2.5900   -1.4330 ca        1 MOL      0.060208
    120 C40        -5.3230    3.6670   -0.6290 ca        1 MOL     -0.147535
    121 C41        -5.7140    2.6400   -2.8510 ca        1 MOL     -0.147535
    122 C42        -4.7410    4.7620   -1.2020 ca        1 MOL     -0.051626
    123 C43        -5.1440    3.7900   -3.4320 ca        1 MOL     -0.051626
    124 C44        -4.6660    4.8230   -2.6220 ca        1 MOL     -0.194691
    125 H51        -4.1610    1.2420    0.0960 hn        1 MOL      0.322356
    126 H52        -5.4640   -0.4040   -1.6250 h1        1 MOL      0.052091
    127 H53        -6.8460    1.5910    0.2290 hc        1 MOL      0.105405
    128 H54        -7.4300    1.0600   -1.3750 hc        1 MOL      0.105405
    129 H55        -5.5200    3.5670    0.4320 ha        1 MOL      0.110166
    130 H56        -6.1500    1.8600   -3.4650 ha        1 MOL      0.110166
    131 H57        -4.4660    5.5830   -0.5510 ha        1 MOL      0.080055
    132 H58        -5.1860    3.8560   -4.5090 ha        1 MOL      0.080055
    133 H59        -4.2030    5.6680   -3.1130 ha        1 MOL      0.151704
    134 N12        -6.8650   -2.1270   -0.2290 n         1 MOL     -0.040283
    135 C45        -7.6300   -3.1220    0.5230 c3        1 MOL     -0.010724
    136 C46        -6.7050   -4.0810    1.2990 c         1 MOL      0.405020
    137 O20        -7.0930   -4.6620    2.3140 o         1 MOL     -0.530636
    138 C47        -8.4500   -3.9360   -0.5860 c3        1 MOL     -0.135749
    139 C48        -7.4870   -3.7640   -1.7970 c3        1 MOL      0.102170
    140 C49        -7.0210   -2.3210   -1.6650 c3        1 MOL     -0.147790
    141 H60        -8.2600   -2.7080    1.3190 h1        1 MOL      0.071227
    142 H61        -8.5560   -4.9840   -0.2930 hc        1 MOL      0.058250
    143 H62        -9.4560   -3.5900   -0.8150 hc        1 MOL      0.058250
    144 H63        -6.6590   -4.4770   -1.8530 hc        1 MOL     -0.005177
    145 H64        -8.0190   -3.9300   -2.7280 hc        1 MOL     -0.005177
    146 H65        -6.0470   -2.2790   -2.1540 h1        1 MOL      0.048335
    147 H66        -7.6550   -1.5770   -2.1510 h1        1 MOL      0.048335
    148 N13        -5.4430   -4.2200    0.8160 n         1 MOL     -0.245183
    149 C50        -4.5050   -5.3540    1.1540 c3        1 MOL     -0.083052
    150 C51        -4.2130   -5.2940    2.6610 c         1 MOL      0.535924
    151 O21        -4.1160   -6.3840    3.2240 o         1 MOL     -0.555889
    152 C52        -3.2060   -5.2560    0.2970 c3        1 MOL      0.205112
    153 C53        -3.2260   -5.8300   -1.0870 c3        1 MOL     -0.223963
    154 C54        -1.9240   -5.5130   -1.8210 c         1 MOL      0.672389
    155 O22        -0.9020   -6.2660   -1.5920 o         1 MOL     -0.756286
    156 O23        -1.6990   -4.5130   -2.5000 o         1 MOL     -0.756286
    157 H67        -5.1950   -3.5630    0.0970 hn        1 MOL      0.217527
    158 H68        -4.9610   -6.2980    0.8660 h1        1 MOL      0.080992
    159 H69        -2.4560   -5.8810    0.7790 hc        1 MOL     -0.021459
    160 H70        -2.9160   -4.2030    0.3610 hc        1 MOL     -0.021459
    161 H71        -4.0810   -5.3350   -1.5480 hc        1 MOL      0.041036
    162 H72        -3.4450   -6.9010   -1.1420 hc        1 MOL      0.041036
    163 N14        -4.0420   -4.1190    3.3500 n         1 MOL     -0.292161
    164 C55        -3.4190   -4.1240    4.7230 c3        1 MOL     -0.309085
    165 H73        -3.9000   -3.3660    5.3420 h1        1 MOL      0.125353
    166 H74        -3.5520   -5.1040    5.1810 h1        1 MOL      0.125353
    167 H75        -2.3550   -3.9030    4.6400 h1        1 MOL      0.125353
    168 H76        -4.2010   -3.2390    2.8840 hn        1 MOL      0.255904
    169 Ca1         0.8510   -4.2080   -1.8900 Ca        1 MOL      1.773851
    170 O24         1.4150   -6.2420   -3.6430 oh        1 MOL     -0.803445
    171 H77         0.7100   -6.8950   -3.6100 ho        1 MOL      0.396838
    172 H78         2.0750   -6.6330   -4.2140 ho        1 MOL      0.396838
    173 O25         0.4940   -2.4920   -4.1170 oh        1 MOL     -0.803445
    174 H79         0.9650   -2.4520   -4.9480 ho        1 MOL      0.396838
    175 H80        -0.1260   -1.7500   -4.1590 ho        1 MOL      0.396838
    176 O26         2.0510   -6.2190   -0.7640 oh        1 MOL     -0.803445
    177 H81         2.4970   -6.9730   -1.1710 ho        1 MOL      0.396838
    178 H82         2.3600   -6.2290    0.1450 ho        1 MOL      0.396838
@<TRIPOS>BOND
     1    1    2 1   
     2    1    4 1   
     3    1    5 1   
     4    1    6 1   
     5    2    3 2   
     6    2    7 1   
     7    7    8 1   
     8    7   15 1   
     9    8    9 1   
    10    8   11 1   
    11    8   16 1   
    12    9   10 2   
    13    9   19 1   
    14   11   12 1   
    15   11   17 1   
    16   11   18 1   
    17   12   13 1   
    18   12   14 1   
    19   19   20 1   
    20   19   24 1   
    21   20   21 1   
    22   20   23 1   
    23   20   25 1   
    24   21   22 2   
    25   21   29 1   
    26   23   26 1   
    27   23   27 1   
    28   23   28 1   
    29   29   30 1   
    30   29   37 1   
    31   30   31 1   
    32   30   33 1   
    33   30   38 1   
    34   31   32 2   
    35   31   41 1   
    36   33   34 1   
    37   33   39 1   
    38   33   40 1   
    39   34   35 1   
    40   34   36 1   
    41   41   42 1   
    42   41   45 1   
    43   42   43 1   
    44   42   46 1   
    45   42   47 1   
    46   43   44 2   
    47   43   48 1   
    48   48   49 1   
    49   48   56 1   
    50   49   50 1   
    51   49   52 1   
    52   49   57 1   
    53   50   51 2   
    54   50   62 1   
    55   52   53 1   
    56   52   58 1   
    57   52   59 1   
    58   53   54 1   
    59   53   55 2   
    60   54   60 1   
    61   54   61 1   
    62   62   63 1   
    63   62   66 1   
    64   63   64 1   
    65   63   67 1   
    66   63   68 1   
    67   64   65 2   
    68   64   69 1   
    69   69   70 1   
    70   69   76 1   
    71   70   71 1   
    72   70   73 1   
    73   70   77 1   
    74   71   72 2   
    75   71   83 1   
    76   73   74 1   
    77   73   75 1   
    78   73   78 1   
    79   74   80 1   
    80   74   81 1   
    81   74   82 1   
    82   75   79 1   
    83   83   84 1   
    84   83   91 1   
    85   84   85 1   
    86   84   87 1   
    87   84   92 1   
    88   85   86 2   
    89   85  102 1   
    90   87   88 1   
    91   87   89 1   
    92   87   93 1   
    93   88   90 1   
    94   88   94 1   
    95   88   95 1   
    96   89   96 1   
    97   89   97 1   
    98   89   98 1   
    99   90   99 1   
   100   90  100 1   
   101   90  101 1   
   102  102  103 1   
   103  102  110 1   
   104  103  104 1   
   105  103  106 1   
   106  103  111 1   
   107  104  105 2   
   108  104  114 1   
   109  106  107 1   
   110  106  112 1   
   111  106  113 1   
   112  107  108 1   
   113  107  109 1   
   114  114  115 1   
   115  114  125 1   
   116  115  116 1   
   117  115  118 1   
   118  115  126 1   
   119  116  117 2   
   120  116  134 1   
   121  118  119 1   
   122  118  127 1   
   123  118  128 1   
   124  119  120 ar  
   125  119  121 ar  
   126  120  122 ar  
   127  120  129 1   
   128  121  123 ar  
   129  121  130 1   
   130  122  124 ar  
   131  122  131 1   
   132  123  124 ar  
   133  123  132 1   
   134  124  133 1   
   135  134  135 1   
   136  134  140 1   
   137  135  136 1   
   138  135  138 1   
   139  135  141 1   
   140  136  137 2   
   141  136  148 1   
   142  138  139 1   
   143  138  142 1   
   144  138  143 1   
   145  139  140 1   
   146  139  144 1   
   147  139  145 1   
   148  140  146 1   
   149  140  147 1   
   150  148  149 1   
   151  148  157 1   
   152  149  150 1   
   153  149  152 1   
   154  149  158 1   
   155  150  151 2   
   156  150  163 1   
   157  152  153 1   
   158  152  159 1   
   159  152  160 1   
   160  153  154 1   
   161  153  161 1   
   162  153  162 1   
   163  154  155 1   
   164  154  156 1   
   165  163  164 1   
   166  163  168 1   
   167  164  165 1   
   168  164  166 1   
   169  164  167 1   
   170  170  171 1   
   171  170  172 1   
   172  173  174 1   
   173  173  175 1   
   174  176  177 1   
   175  176  178 1   
@<TRIPOS>SUBSTRUCTURE
     1 MOL         1 TEMP              0 ****  ****    0 ROOT
