@<TRIPOS>MOLECULE
MOL
  189   185     1     0     0
SMALL
resp


@<TRIPOS>ATOM
      1 C1          4.1600    3.5970   -3.5190 c3        1 MOL     -0.407453
      2 C2          5.0380    2.8030   -2.4200 c         1 MOL      0.643945
      3 O1          4.5920    2.5450   -1.2930 o         1 MOL     -0.593120
      4 H1          3.1020    3.3890   -3.3570 hc        1 MOL      0.108257
      5 H2          4.3380    4.6680   -3.4210 hc        1 MOL      0.108257
      6 H3          4.4450    3.2700   -4.5190 hc        1 MOL      0.108257
      7 N1          6.2270    2.3920   -2.8210 n         1 MOL     -0.585057
      8 C3          7.1390    1.5500   -2.0650 c3        1 MOL      0.167483
      9 C4          6.4700    0.3290   -1.5080 c         1 MOL      0.268486
     10 O2          5.9610    0.2280   -0.3710 o         1 MOL     -0.363420
     11 C5          8.1420    2.3300   -1.1900 c3        1 MOL     -0.240305
     12 C6          7.5420    3.2410   -0.2250 c         1 MOL      0.894607
     13 O3          6.8150    2.8310    0.6930 o         1 MOL     -0.779151
     14 O4          7.9160    4.4620   -0.2540 o         1 MOL     -0.779151
     15 H4          6.5690    2.6200   -3.7490 hn        1 MOL      0.340326
     16 H5          7.6680    1.1450   -2.9290 h1        1 MOL      0.023346
     17 H6          8.7340    2.9350   -1.8700 hc        1 MOL      0.046294
     18 H7          8.8090    1.7510   -0.5510 hc        1 MOL      0.046294
     19 N2          6.0730   -0.5260   -2.5310 n         1 MOL     -0.389933
     20 C7          5.3960   -1.7920   -2.6010 c3        1 MOL      0.056585
     21 C8          6.0860   -2.9730   -1.7880 c         1 MOL      0.334739
     22 O5          6.3380   -4.0570   -2.2630 o         1 MOL     -0.524881
     23 C9          3.9180   -1.6130   -2.2060 c3        1 MOL      0.275825
     24 C10         3.1090   -2.9480   -2.1740 c3        1 MOL      0.047561
     25 C11         3.2160   -0.4520   -2.9350 c3        1 MOL     -0.179712
     26 C12         3.0910   -3.8000   -3.4900 c3        1 MOL     -0.347151
     27 H8          6.2980   -0.1880   -3.4580 hn        1 MOL      0.269709
     28 H9          5.4300   -2.0120   -3.6640 h1        1 MOL      0.007923
     29 H10         3.9790   -1.3170   -1.1630 hc        1 MOL     -0.030258
     30 H11         2.1070   -2.6620   -1.8520 hc        1 MOL      0.016162
     31 H12         3.4840   -3.5820   -1.3740 hc        1 MOL      0.016162
     32 H13         3.0390   -0.7190   -3.9770 hc        1 MOL      0.019750
     33 H14         2.3620   -0.1770   -2.3130 hc        1 MOL      0.019750
     34 H15         3.7800    0.4830   -2.8360 hc        1 MOL      0.019750
     35 H16         2.3890   -4.6230   -3.3640 hc        1 MOL      0.068426
     36 H17         2.6820   -3.0870   -4.2140 hc        1 MOL      0.068426
     37 H18         4.0600   -4.2550   -3.6980 hc        1 MOL      0.068426
     38 N3          6.3540   -2.6840   -0.5300 n         1 MOL     -0.120704
     39 C13         7.0740   -3.6080    0.3460 c3        1 MOL      0.141854
     40 C14         6.1750   -4.8520    0.7030 c         1 MOL      0.553928
     41 O6          6.7450   -5.9460    0.6930 o         1 MOL     -0.596689
     42 C15         7.6660   -2.8730    1.5260 c3        1 MOL     -0.347392
     43 C16         8.4950   -1.7640    0.9970 c         1 MOL      0.853492
     44 O7          8.5540   -0.6870    1.6240 o         1 MOL     -0.736673
     45 O8          9.3310   -1.9760    0.0630 o         1 MOL     -0.736673
     46 H19         6.1750   -1.7710   -0.1580 hn        1 MOL      0.147219
     47 H20         7.9090   -4.1000   -0.1500 h1        1 MOL      0.038690
     48 H21         8.3400   -3.6150    1.9540 hc        1 MOL      0.081299
     49 H22         6.9610   -2.3820    2.2020 hc        1 MOL      0.081299
     50 N4          4.8630   -4.9120    0.9560 n         1 MOL     -0.482942
     51 C17         3.9500   -3.9000    1.3830 c3        1 MOL      0.204701
     52 C18         4.1430   -3.3670    2.8240 c         1 MOL      0.366486
     53 O9          5.1510   -3.6620    3.5080 o         1 MOL     -0.546440
     54 H23         4.5210   -5.8580    1.0360 hn        1 MOL      0.269852
     55 H24         2.9170   -4.2560    1.3090 h1        1 MOL      0.014099
     56 H25         4.1400   -3.0830    0.6870 h1        1 MOL      0.014099
     57 N5          3.3370   -2.4680    3.3770 n         1 MOL     -0.369399
     58 C19         2.1360   -1.7800    2.8610 c3        1 MOL      0.155970
     59 C20         2.2010   -1.0760    1.5030 c         1 MOL      0.101570
     60 O10         3.2860   -0.6350    1.0960 o         1 MOL     -0.577614
     61 C21         1.7060   -0.8460    3.9330 c3        1 MOL     -0.231072
     62 C22         2.6860    0.2800    4.2210 c         1 MOL      0.766526
     63 O11         3.3100    0.2010    5.3040 o         1 MOL     -0.704413
     64 O12         3.0020    1.1460    3.3660 o         1 MOL     -0.704413
     65 H26         3.5960   -2.3670    4.3430 hn        1 MOL      0.309402
     66 H27         1.3730   -2.5400    2.6980 h1        1 MOL     -0.001591
     67 H28         1.5790   -1.4430    4.8330 hc        1 MOL      0.040701
     68 H29         0.7360   -0.4490    3.6300 hc        1 MOL      0.040701
     69 N6          1.1040   -0.8540    0.7970 n         1 MOL     -0.013493
     70 C23        -0.2740   -1.3400    1.0330 c3        1 MOL      0.080732
     71 C24        -0.7030   -2.7200    0.3820 c         1 MOL      0.445479
     72 O13         0.0610   -3.2600   -0.5160 o         1 MOL     -0.529658
     73 H30         1.1740   -0.2010    0.0310 hn        1 MOL      0.179296
     74 H31        -0.9650   -0.5930    0.6410 h1        1 MOL      0.021980
     75 H32        -0.5590   -1.4310    2.0820 h1        1 MOL      0.021980
     76 N7         -1.9230   -3.2120    0.6130 n         1 MOL     -0.350802
     77 C25        -2.4710   -4.3990   -0.0900 c3        1 MOL     -0.045767
     78 C26        -3.2100   -4.1450   -1.3550 c         1 MOL      0.495365
     79 O14        -3.4580   -5.1080   -2.0460 o         1 MOL     -0.532216
     80 C27        -3.2070   -5.1730    1.0390 c3        1 MOL     -0.054332
     81 C28        -4.2360   -4.4760    1.8780 c3        1 MOL     -0.294119
     82 C29        -5.4170   -3.9850    1.0610 c         1 MOL      0.426409
     83 N8         -6.2220   -4.9250    0.6780 n         1 MOL     -0.541020
     84 O15        -5.6030   -2.8520    0.6780 o         1 MOL     -0.468437
     85 H33        -2.4700   -2.6150    1.2170 hn        1 MOL      0.258749
     86 H34        -1.6340   -5.0440   -0.3270 h1        1 MOL      0.144649
     87 H35        -2.4200   -5.3950    1.7480 hc        1 MOL      0.055707
     88 H36        -3.6360   -6.0980    0.6480 hc        1 MOL      0.055707
     89 H37        -3.7540   -3.6560    2.4140 hc        1 MOL      0.110616
     90 H38        -4.5370   -5.2520    2.5860 hc        1 MOL      0.110616
     91 H39        -6.0220   -5.8650    0.9800 hn        1 MOL      0.305306
     92 H40        -7.1440   -4.6700    0.3450 hn        1 MOL      0.305306
     93 N9         -3.5040   -2.8750   -1.7680 n         1 MOL     -0.214116
     94 C30        -4.1330   -2.5390   -3.0900 c3        1 MOL     -0.091932
     95 C31        -5.5300   -1.9660   -3.0320 c         1 MOL      0.374055
     96 O16        -6.1810   -1.9030   -4.0710 o         1 MOL     -0.550454
     97 C32        -3.2510   -1.5560   -3.9450 c3        1 MOL      0.200976
     98 C33        -2.1200   -2.4280   -4.5980 c3        1 MOL     -0.163714
     99 C34        -2.7980   -0.2920   -3.2820 c3        1 MOL     -0.163714
    100 H41        -3.2530   -2.0480   -1.2360 hn        1 MOL      0.151678
    101 H42        -4.2330   -3.4320   -3.6900 h1        1 MOL      0.120621
    102 H43        -3.7830   -1.3020   -4.8740 hc        1 MOL      0.010425
    103 H44        -2.5070   -3.0650   -5.3980 hc        1 MOL      0.034614
    104 H45        -1.3270   -1.7770   -4.9720 hc        1 MOL      0.034614
    105 H46        -1.6660   -2.9810   -3.7820 hc        1 MOL      0.034614
    106 H47        -2.7070    0.4850   -4.0410 hc        1 MOL      0.034614
    107 H48        -3.6220    0.1210   -2.7060 hc        1 MOL      0.034614
    108 H49        -1.8510   -0.4690   -2.7810 hc        1 MOL      0.034614
    109 N10        -5.9940   -1.5740   -1.8290 n         1 MOL     -0.138366
    110 C35        -7.3350   -0.8560   -1.6510 c3        1 MOL     -0.073255
    111 C36        -7.2180    0.4980   -0.9070 c         1 MOL      0.515016
    112 O17        -8.2080    1.1930   -0.8440 o         1 MOL     -0.531813
    113 C37        -8.3560   -1.6670   -0.8440 c3        1 MOL     -0.192710
    114 C38        -8.4730   -3.1000   -1.3050 c         1 MOL      0.542446
    115 N11        -8.3210   -3.4360   -2.5450 n         1 MOL     -0.623903
    116 O18        -8.5860   -3.9950   -0.4990 o         1 MOL     -0.569715
    117 H50        -5.4670   -1.7700   -0.9860 hn        1 MOL      0.222256
    118 H51        -7.6970   -0.6890   -2.6590 h1        1 MOL      0.095981
    119 H52        -9.2930   -1.1130   -0.8750 hc        1 MOL      0.090488
    120 H53        -8.0130   -1.7000    0.1840 hc        1 MOL      0.090488
    121 H54        -8.2920   -2.7650   -3.2980 hn        1 MOL      0.328603
    122 H55        -8.5550   -4.4020   -2.7330 hn        1 MOL      0.328603
    123 N12        -6.0340    0.8460   -0.3880 n         1 MOL     -0.467278
    124 C39        -5.8950    2.0640    0.3810 c3        1 MOL      0.362590
    125 C40        -4.5640    2.7290    0.0830 c         1 MOL      0.260039
    126 O19        -3.5390    2.0830   -0.0800 o         1 MOL     -0.410609
    127 C41        -5.8790    1.6810    1.8620 c3        1 MOL     -0.059456
    128 C42        -7.1550    1.1220    2.3500 ca        1 MOL     -0.025216
    129 C43        -7.2870   -0.2340    2.4040 ca        1 MOL     -0.100337
    130 C44        -8.2430    1.9570    2.6620 ca        1 MOL     -0.100337
    131 C45        -8.5060   -0.8160    2.8430 ca        1 MOL     -0.221445
    132 C46        -9.4870    1.4160    3.1190 ca        1 MOL     -0.221445
    133 C47        -9.6330    0.0440    3.2120 ca        1 MOL      0.265691
    134 O20       -10.8100   -0.5500    3.7370 oh        1 MOL     -0.506943
    135 H56        -5.3320    0.1270   -0.4900 hn        1 MOL      0.196868
    136 H57        -6.7070    2.7640    0.1590 h1        1 MOL      0.001659
    137 H58        -5.6910    2.5890    2.4330 hc        1 MOL      0.056461
    138 H59        -5.0700    0.9830    2.0920 hc        1 MOL      0.056461
    139 H60        -6.3760   -0.7620    2.1550 ha        1 MOL      0.118047
    140 H61        -8.1720    3.0320    2.6000 ha        1 MOL      0.118047
    141 H62        -8.4430   -1.8590    3.0940 ha        1 MOL      0.134478
    142 H63       -10.3110    2.0950    3.2360 ha        1 MOL      0.134478
    143 H64       -10.7910   -1.4720    3.4820 ho        1 MOL      0.354369
    144 N13        -4.5230    4.0900    0.1860 n         1 MOL     -0.480076
    145 C48        -3.2960    4.9630    0.4570 c3        1 MOL      0.097142
    146 C49        -2.2880    5.1380   -0.7160 c         1 MOL      0.334419
    147 O21        -1.9590    6.3020   -1.0250 o         1 MOL     -0.509941
    148 C50        -2.5750    4.5050    1.7900 c3        1 MOL      0.049646
    149 C51        -3.3460    4.7940    3.0540 c3        1 MOL     -0.202298
    150 C52        -2.5720    4.3500    4.3100 c         1 MOL      0.685702
    151 O22        -2.7340    3.1840    4.7710 o         1 MOL     -0.711985
    152 O23        -1.7720    5.1420    4.8610 o         1 MOL     -0.711985
    153 H65        -5.4220    4.5430    0.2060 hn        1 MOL      0.296656
    154 H66        -3.7260    5.9630    0.5630 h1        1 MOL      0.065881
    155 H67        -1.6080    4.9770    1.9990 hc        1 MOL      0.058289
    156 H68        -2.3540    3.4350    1.7630 hc        1 MOL      0.058289
    157 H69        -4.2960    4.2540    3.0590 hc        1 MOL     -0.012689
    158 H70        -3.5560    5.8680    3.0310 hc        1 MOL     -0.012689
    159 N14        -1.8120    4.0610   -1.3560 n         1 MOL     -0.242404
    160 C53        -0.5590    4.0890   -2.2490 c3        1 MOL     -0.186335
    161 C54        -0.8050    4.8420   -3.6200 c         1 MOL      0.533925
    162 O24         0.0780    5.4410   -4.2570 o         1 MOL     -0.535609
    163 C55        -0.0590    2.6670   -2.4320 c3        1 MOL      0.049701
    164 C56         0.2700    1.9810   -1.0750 c3        1 MOL      0.207028
    165 C57         1.2120    2.6330   -0.1370 c         1 MOL      0.635223
    166 O25         1.1230    3.8040    0.3370 o         1 MOL     -0.647070
    167 O26         2.1700    1.9490    0.2260 o         1 MOL     -0.647070
    168 H71        -2.1880    3.1640   -1.0650 hn        1 MOL      0.227471
    169 H72         0.0940    4.7300   -1.6600 h1        1 MOL      0.162585
    170 H73         0.8400    2.7540   -3.0400 hc        1 MOL     -0.027551
    171 H74        -0.9400    2.2980   -2.9550 hc        1 MOL     -0.027551
    172 H75         0.5240    0.9850   -1.4370 hc        1 MOL     -0.085665
    173 H76        -0.6380    1.8920   -0.4710 hc        1 MOL     -0.085665
    174 N15        -2.1040    4.8620   -3.9870 n         1 MOL     -0.199606
    175 C58        -2.7500    5.6160   -5.0210 c3        1 MOL     -0.415700
    176 H77        -3.8300    5.5100   -4.9270 h1        1 MOL      0.137909
    177 H78        -2.4800    6.6690   -4.9270 h1        1 MOL      0.137909
    178 H79        -2.4320    5.2450   -5.9960 h1        1 MOL      0.137909
    179 H80        -2.7860    4.4870   -3.3400 hn        1 MOL      0.225055
    180 Ca1         4.5510    1.6430    1.2550 Ca        1 MOL      1.781746
    181 O27         3.7170    4.2110    1.2410 oh        1 MOL     -0.790891
    182 H81         4.1860    4.8920    0.7400 ho        1 MOL      0.380209
    183 H82         2.8430    4.1880    0.8500 ho        1 MOL      0.380209
    184 O28         5.3130    3.1590    3.4520 oh        1 MOL     -0.790891
    185 H83         5.8590    2.6550    4.0610 ho        1 MOL      0.380209
    186 H84         4.9250    3.8430    3.9860 ho        1 MOL      0.380209
    187 O29         6.3010    0.1410    2.7460 oh        1 MOL     -0.790891
    188 H85         6.2980   -0.4800    3.4730 ho        1 MOL      0.380209
    189 H86         6.9770   -0.1880    2.1490 ho        1 MOL      0.380209
@<TRIPOS>BOND
     1    1    2 1   
     2    1    4 1   
     3    1    5 1   
     4    1    6 1   
     5    2    3 2   
     6    2    7 1   
     7    7    8 1   
     8    7   15 1   
     9    8    9 1   
    10    8   11 1   
    11    8   16 1   
    12    9   10 2   
    13    9   19 1   
    14   11   12 1   
    15   11   17 1   
    16   11   18 1   
    17   12   13 1   
    18   12   14 1   
    19   19   20 1   
    20   19   27 1   
    21   20   21 1   
    22   20   23 1   
    23   20   28 1   
    24   21   22 2   
    25   21   38 1   
    26   23   24 1   
    27   23   25 1   
    28   23   29 1   
    29   24   26 1   
    30   24   30 1   
    31   24   31 1   
    32   25   32 1   
    33   25   33 1   
    34   25   34 1   
    35   26   35 1   
    36   26   36 1   
    37   26   37 1   
    38   38   39 1   
    39   38   46 1   
    40   39   40 1   
    41   39   42 1   
    42   39   47 1   
    43   40   41 2   
    44   40   50 1   
    45   42   43 1   
    46   42   48 1   
    47   42   49 1   
    48   43   44 1   
    49   43   45 1   
    50   50   51 1   
    51   50   54 1   
    52   51   52 1   
    53   51   55 1   
    54   51   56 1   
    55   52   53 2   
    56   52   57 1   
    57   57   58 1   
    58   57   65 1   
    59   58   59 1   
    60   58   61 1   
    61   58   66 1   
    62   59   60 2   
    63   59   69 1   
    64   61   62 1   
    65   61   67 1   
    66   61   68 1   
    67   62   63 1   
    68   62   64 1   
    69   69   70 1   
    70   69   73 1   
    71   70   71 1   
    72   70   74 1   
    73   70   75 1   
    74   71   72 2   
    75   71   76 1   
    76   76   77 1   
    77   76   85 1   
    78   77   78 1   
    79   77   80 1   
    80   77   86 1   
    81   78   79 2   
    82   78   93 1   
    83   80   81 1   
    84   80   87 1   
    85   80   88 1   
    86   81   82 1   
    87   81   89 1   
    88   81   90 1   
    89   82   83 1   
    90   82   84 2   
    91   83   91 1   
    92   83   92 1   
    93   93   94 1   
    94   93  100 1   
    95   94   95 1   
    96   94   97 1   
    97   94  101 1   
    98   95   96 2   
    99   95  109 1   
   100   97   98 1   
   101   97   99 1   
   102   97  102 1   
   103   98  103 1   
   104   98  104 1   
   105   98  105 1   
   106   99  106 1   
   107   99  107 1   
   108   99  108 1   
   109  109  110 1   
   110  109  117 1   
   111  110  111 1   
   112  110  113 1   
   113  110  118 1   
   114  111  112 2   
   115  111  123 1   
   116  113  114 1   
   117  113  119 1   
   118  113  120 1   
   119  114  115 1   
   120  114  116 2   
   121  115  121 1   
   122  115  122 1   
   123  123  124 1   
   124  123  135 1   
   125  124  125 1   
   126  124  127 1   
   127  124  136 1   
   128  125  126 2   
   129  125  144 1   
   130  127  128 1   
   131  127  137 1   
   132  127  138 1   
   133  128  129 ar  
   134  128  130 ar  
   135  129  131 ar  
   136  129  139 1   
   137  130  132 ar  
   138  130  140 1   
   139  131  133 ar  
   140  131  141 1   
   141  132  133 ar  
   142  132  142 1   
   143  133  134 1   
   144  134  143 1   
   145  144  145 1   
   146  144  153 1   
   147  145  146 1   
   148  145  148 1   
   149  145  154 1   
   150  146  147 2   
   151  146  159 1   
   152  148  149 1   
   153  148  155 1   
   154  148  156 1   
   155  149  150 1   
   156  149  157 1   
   157  149  158 1   
   158  150  151 1   
   159  150  152 1   
   160  159  160 1   
   161  159  168 1   
   162  160  161 1   
   163  160  163 1   
   164  160  169 1   
   165  161  162 2   
   166  161  174 1   
   167  163  164 1   
   168  163  170 1   
   169  163  171 1   
   170  164  165 1   
   171  164  172 1   
   172  164  173 1   
   173  165  166 1   
   174  165  167 1   
   175  174  175 1   
   176  174  179 1   
   177  175  176 1   
   178  175  177 1   
   179  175  178 1   
   180  181  182 1   
   181  181  183 1   
   182  184  185 1   
   183  184  186 1   
   184  187  188 1   
   185  187  189 1   
@<TRIPOS>SUBSTRUCTURE
     1 MOL         1 TEMP              0 ****  ****    0 ROOT
