@<TRIPOS>MOLECULE
MOL
  191   184     1     0     0
SMALL
resp


@<TRIPOS>ATOM
      1 C1         -3.5880    1.2170   -2.8740 c3        1 MOL     -0.688862
      2 C2         -4.3810    1.3090   -1.6110 c         1 MOL      0.840315
      3 O1         -4.0430    0.7370   -0.6020 o         1 MOL     -0.467570
      4 H1         -3.9830    0.4100   -3.4920 hc        1 MOL      0.170498
      5 H2         -3.6590    2.1580   -3.4180 hc        1 MOL      0.170498
      6 H3         -2.5440    1.0130   -2.6350 hc        1 MOL      0.170498
      7 N1         -5.5420    1.9360   -1.7360 n         1 MOL     -0.681759
      8 C3         -6.5620    1.8730   -0.7210 c3        1 MOL     -0.052493
      9 C4         -6.8480    0.4330   -0.3810 c         1 MOL      0.503319
     10 O2         -6.7620    0.0840    0.8170 o         1 MOL     -0.520819
     11 C5         -6.2880    2.8020    0.4640 c3        1 MOL     -0.166857
     12 C6         -6.2140    4.3220    0.2090 c         1 MOL      0.671567
     13 O3         -6.3280    5.1170    1.1340 o         1 MOL     -0.649610
     14 O4         -6.0220    4.7230   -0.9620 o         1 MOL     -0.649610
     15 H4         -5.7640    2.5800   -2.4820 hn        1 MOL      0.342128
     16 H5         -7.4600    2.3320   -1.1360 h1        1 MOL      0.087705
     17 H6         -5.3940    2.5250    1.0090 hc        1 MOL      0.069558
     18 H7         -7.0730    2.7120    1.2120 hc        1 MOL      0.069558
     19 N2         -7.1130   -0.4620   -1.3010 n         1 MOL     -0.383193
     20 C7         -7.3490   -1.8660   -1.0220 c3        1 MOL      0.058356
     21 C8         -6.0760   -2.7510   -0.7940 c         1 MOL      0.374466
     22 O5         -6.2250   -3.9570   -0.5880 o         1 MOL     -0.521470
     23 C9         -8.2110   -2.4670   -2.1330 c3        1 MOL     -0.074004
     24 C10        -9.6180   -1.8060   -2.2050 c3        1 MOL      0.175437
     25 C11       -10.1470   -1.8550   -3.6110 c3        1 MOL     -0.139004
     26 C12       -11.3030   -0.8200   -3.7360 c3        1 MOL      0.168588
     27 N3        -11.9870   -1.0930   -5.0290 n4        1 MOL     -0.387689
     28 H8         -7.2480   -0.0480   -2.2060 hn        1 MOL      0.256347
     29 H9         -8.0450   -1.9370   -0.1860 h1        1 MOL      0.100982
     30 H10        -8.2600   -3.5330   -1.9160 hc        1 MOL      0.032280
     31 H11        -7.6560   -2.2950   -3.0570 hc        1 MOL      0.032280
     32 H12        -9.5480   -0.7610   -1.9050 hc        1 MOL     -0.020454
     33 H13       -10.3810   -2.2620   -1.5670 hc        1 MOL     -0.020454
     34 H14       -10.4070   -2.8840   -3.8870 hc        1 MOL      0.035515
     35 H15        -9.3510   -1.5690   -4.2980 hc        1 MOL      0.035515
     36 H16       -10.8730    0.1760   -3.8040 hx        1 MOL      0.053712
     37 H17       -11.9740   -0.7540   -2.8800 hx        1 MOL      0.053712
     38 H18       -12.1560   -2.0850   -5.1570 hn        1 MOL      0.293482
     39 H19       -12.9000   -0.6540   -4.9950 hn        1 MOL      0.293482
     40 H20       -11.4230   -0.8080   -5.8040 hn        1 MOL      0.293482
     41 N4         -4.8390   -2.2380   -0.7330 n         1 MOL     -0.000576
     42 C13        -3.6270   -3.0750   -0.4330 c3        1 MOL     -0.281232
     43 C14        -3.5290   -3.5720    1.0250 c         1 MOL      0.521252
     44 O6         -4.2030   -3.0160    1.8350 o         1 MOL     -0.387403
     45 C15        -2.4570   -2.1540   -0.7040 c3        1 MOL     -0.177168
     46 C16        -1.0330   -2.8220   -0.6940 c         1 MOL      0.496346
     47 O7         -0.6560   -3.5860   -1.6390 o         1 MOL     -0.597120
     48 O8         -0.3350   -2.4560    0.2880 o         1 MOL     -0.597120
     49 H21        -4.8040   -1.2450   -0.9090 hn        1 MOL      0.018783
     50 H22        -3.7200   -3.8410   -1.2000 h1        1 MOL      0.116767
     51 H23        -2.4390   -1.3280    0.0060 hc        1 MOL      0.122309
     52 H24        -2.6250   -1.7680   -1.7050 hc        1 MOL      0.122309
     53 N5         -2.7800   -4.6880    1.2420 n         1 MOL     -0.293788
     54 C17        -2.5300   -5.4480    2.4840 c3        1 MOL     -0.209834
     55 C18        -1.8390   -4.5740    3.5870 c         1 MOL      0.491867
     56 O9         -1.7120   -4.9800    4.7600 o         1 MOL     -0.576540
     57 H25        -2.3070   -5.1070    0.4600 hn        1 MOL      0.250065
     58 H26        -1.9010   -6.3170    2.3130 h1        1 MOL      0.126701
     59 H27        -3.5300   -5.7990    2.7470 h1        1 MOL      0.126701
     60 N6         -1.2540   -3.4200    3.2600 n         1 MOL     -0.092114
     61 C19        -0.8590   -2.4140    4.3150 c3        1 MOL      0.114265
     62 C20        -1.5390   -0.9770    4.0990 c         1 MOL      0.312941
     63 O10        -1.1760    0.0240    4.7080 o         1 MOL     -0.462180
     64 C21         0.6750   -2.3220    4.3300 c3        1 MOL     -0.183269
     65 C22         1.4900   -3.3790    5.0170 c         1 MOL      0.772741
     66 N7          1.3400   -3.5880    6.3010 n         1 MOL     -0.855154
     67 O11         1.9870   -4.2010    4.3220 o         1 MOL     -0.648573
     68 H28        -1.3780   -3.1300    2.3070 hn        1 MOL      0.110633
     69 H29        -1.1820   -2.7760    5.2990 h1        1 MOL      0.054042
     70 H30         0.9970   -1.3840    4.7820 hc        1 MOL      0.061460
     71 H31         0.9740   -2.4120    3.2900 hc        1 MOL      0.061460
     72 H32         0.7010   -3.0460    6.8650 hn        1 MOL      0.393484
     73 H33         1.5540   -4.5510    6.5120 hn        1 MOL      0.393484
     74 N8         -2.6830   -0.9670    3.3380 n         1 MOL     -0.143263
     75 C23        -3.5670    0.1390    2.9970 c3        1 MOL      0.118058
     76 C24        -3.0670    1.5770    2.7720 c         1 MOL      0.447265
     77 O12        -3.3330    2.4740    3.5690 o         1 MOL     -0.531278
     78 H34        -2.9900   -1.8340    2.9250 hn        1 MOL      0.008208
     79 H35        -4.3930    0.1240    3.7050 h1        1 MOL      0.038275
     80 H36        -3.9590   -0.2130    2.0510 h1        1 MOL      0.038275
     81 N9         -2.4730    1.7350    1.5880 n         1 MOL     -0.218447
     82 C25        -1.7460    3.0030    1.1800 c3        1 MOL      0.040502
     83 C26        -0.5480    2.6280    0.3060 c         1 MOL      0.552489
     84 O13        -0.0730    1.4950    0.3220 o         1 MOL     -0.515954
     85 C27        -2.8060    3.9130    0.5540 c3        1 MOL     -0.162870
     86 C28        -2.3530    5.2890    0.1990 ca        1 MOL      0.118510
     87 C29        -2.0810    6.1640    1.2380 ca        1 MOL     -0.098621
     88 C30        -2.3110    5.7590   -1.1570 ca        1 MOL     -0.098621
     89 C31        -1.6490    7.5270    0.9800 ca        1 MOL     -0.321767
     90 C32        -1.8500    7.1130   -1.4360 ca        1 MOL     -0.321767
     91 C33        -1.5920    7.9880   -0.3430 ca        1 MOL      0.381886
     92 O14        -1.1390    9.2200   -0.5580 oh        1 MOL     -0.482228
     93 H37        -2.4870    0.9230    0.9730 hn        1 MOL      0.086886
     94 H38        -1.3490    3.4840    2.0690 h1        1 MOL      0.061685
     95 H39        -3.5300    4.0290    1.3600 hc        1 MOL      0.123537
     96 H40        -3.4010    3.5150   -0.2620 hc        1 MOL      0.123537
     97 H41        -2.1830    5.8120    2.2640 ha        1 MOL      0.119687
     98 H42        -2.6130    5.0610   -1.9190 ha        1 MOL      0.119687
     99 H43        -1.5090    8.2610    1.7590 ha        1 MOL      0.156714
    100 H44        -1.7550    7.5750   -2.4140 ha        1 MOL      0.156714
    101 H45        -1.1080    9.4310   -1.5000 ho        1 MOL      0.354273
    102 N10         0.0800    3.6360   -0.2950 n         1 MOL     -0.365008
    103 C34         1.2870    3.3280   -1.0640 c3        1 MOL     -0.018601
    104 C35         2.5260    2.8180   -0.2760 c         1 MOL      0.449764
    105 O15         3.1490    1.8590   -0.7120 o         1 MOL     -0.481274
    106 C36         1.7770    4.5470   -1.8680 c3        1 MOL      0.108340
    107 C37         3.1550    4.4820   -2.6230 c3        1 MOL     -0.104404
    108 C38         1.8400    5.8890   -1.0820 c3        1 MOL     -0.334877
    109 C39         3.2400    3.4850   -3.7810 c3        1 MOL      0.005430
    110 H46        -0.1840    4.6000   -0.1900 hn        1 MOL      0.078106
    111 H47         1.0820    2.5320   -1.7780 h1        1 MOL      0.100082
    112 H48         1.0560    4.5840   -2.6890 hc        1 MOL      0.020398
    113 H49         4.0200    4.3360   -1.9690 hc        1 MOL      0.042536
    114 H50         3.2840    5.4160   -3.1550 hc        1 MOL      0.042536
    115 H51         2.6080    5.8880   -0.3080 hc        1 MOL      0.079934
    116 H52         1.8660    6.6690   -1.8440 hc        1 MOL      0.079934
    117 H53         0.8870    5.9490   -0.5680 hc        1 MOL      0.079934
    118 H54         4.1390    3.5740   -4.3900 hc        1 MOL      0.000802
    119 H55         3.2540    2.5160   -3.2790 hc        1 MOL      0.000802
    120 H56         2.3720    3.5570   -4.4360 hc        1 MOL      0.000802
    121 N11         2.6410    3.2560    0.9640 n         1 MOL     -0.186696
    122 C40         3.2630    2.5470    2.1120 c3        1 MOL     -0.481273
    123 C41         4.7320    2.6430    2.2120 c         1 MOL      0.558163
    124 O16         5.2780    1.7860    2.8880 o         1 MOL     -0.497090
    125 C42         2.5630    2.8630    3.4640 c3        1 MOL      0.224504
    126 O17         1.2000    2.4780    3.4800 oh        1 MOL     -0.504529
    127 H57         2.0940    4.0430    1.2670 hn        1 MOL      0.284363
    128 H58         3.0690    1.4770    1.9920 h1        1 MOL      0.242153
    129 H59         2.5370    3.9460    3.5640 h1        1 MOL      0.049460
    130 H60         3.0850    2.4320    4.3230 h1        1 MOL      0.049460
    131 H61         0.8290    2.7540    2.6320 ho        1 MOL      0.329610
    132 N12         5.4180    3.6840    1.6850 n         1 MOL     -0.346674
    133 C43         6.9190    3.9090    1.7420 c3        1 MOL      0.134540
    134 C44         7.7320    2.7240    1.0710 c         1 MOL      0.399147
    135 O18         8.9700    2.6710    1.1340 o         1 MOL     -0.515289
    136 C45         7.2510    4.0150    3.2800 c3        1 MOL     -0.334523
    137 H62         5.0050    4.3030    1.0070 hn        1 MOL      0.213386
    138 H63         7.2260    4.9040    1.4090 h1        1 MOL      0.069582
    139 H64         8.2790    4.3310    3.3980 hc        1 MOL      0.110791
    140 H65         6.5430    4.7220    3.7090 hc        1 MOL      0.110791
    141 H66         7.0830    3.0300    3.7220 hc        1 MOL      0.110791
    142 N13         7.0260    1.7580    0.5270 n         1 MOL     -0.496151
    143 C46         7.4890    0.3830    0.2050 c3        1 MOL      0.688441
    144 C47         7.1950   -0.1220   -1.2270 c         1 MOL      0.305425
    145 O19         6.2780    0.4140   -1.8450 o         1 MOL     -0.483864
    146 C48         7.0080   -0.5870    1.2300 c3        1 MOL     -0.369537
    147 H67         6.0160    1.8110    0.4430 hn        1 MOL      0.201005
    148 H68         8.5690    0.3900    0.2930 h1        1 MOL     -0.107382
    149 H69         5.9630   -0.3240    1.3700 hc        1 MOL      0.088508
    150 H70         7.2260   -1.5720    0.8290 hc        1 MOL      0.088508
    151 H71         7.4120   -0.4680    2.2320 hc        1 MOL      0.088508
    152 N14         7.9170   -1.1020   -1.7760 n         1 MOL     -0.400842
    153 C49         7.7680   -1.7600   -3.0470 c3        1 MOL     -0.276509
    154 C50         7.6810   -0.7140   -4.2480 c         1 MOL      0.390404
    155 O20         7.4290   -1.1240   -5.3550 o         1 MOL     -0.501790
    156 C51         6.6540   -2.7760   -3.1110 c3        1 MOL      0.424211
    157 C52         6.6700   -3.8440   -1.9870 c3        1 MOL      0.092648
    158 C53         5.4390   -4.8110   -2.0090 c         1 MOL      0.427446
    159 O21         5.4970   -5.7160   -2.8600 o         1 MOL     -0.637967
    160 O22         4.3930   -4.5470   -1.3730 o         1 MOL     -0.637967
    161 H72         8.6280   -1.4600   -1.1470 hn        1 MOL      0.276014
    162 H73         8.7120   -2.2870   -3.2040 h1        1 MOL      0.139649
    163 H74         6.6580   -3.3140   -4.0580 hc        1 MOL     -0.056546
    164 H75         5.6650   -2.3230   -3.0390 hc        1 MOL     -0.056546
    165 H76         6.6630   -3.3700   -1.0040 hc        1 MOL     -0.080104
    166 H77         7.5870   -4.3940   -2.1800 hc        1 MOL     -0.080104
    167 N15         8.0930    0.5080   -4.0060 n         1 MOL     -0.048024
    168 C54         8.1950    1.5140   -5.0340 c3        1 MOL     -0.330284
    169 H78         8.8460    1.1540   -5.8320 h1        1 MOL      0.124628
    170 H79         7.2050    1.7220   -5.4390 h1        1 MOL      0.124628
    171 H80         8.6130    2.4280   -4.6100 h1        1 MOL      0.124628
    172 H81         8.4290    0.7160   -3.0730 hn        1 MOL      0.170736
    173 Ca1         1.7460   -4.3200   -0.9090 Ca        1 MOL      1.638890
    174 O23         1.2750   -5.7930   -3.1210 oh        1 MOL     -0.821732
    175 H82         1.9160   -6.2460   -3.6560 ho        1 MOL      0.408957
    176 H83         0.5400   -6.4160   -3.0530 ho        1 MOL      0.408957
    177 O24         2.9790   -2.0720   -0.1750 oh        1 MOL     -0.821732
    178 H84         2.7070   -1.4800    0.5280 ho        1 MOL      0.408957
    179 H85         2.9930   -1.5210   -0.9610 ho        1 MOL      0.408957
    180 O25         2.3860   -4.6870    1.7030 oh        1 MOL     -0.821732
    181 H86         3.3170   -4.9170    1.6880 ho        1 MOL      0.408957
    182 H87         2.1840   -4.5740    2.6290 ho        1 MOL      0.408957
    183 O26        -0.0880   -5.9570    0.1130 oh        1 MOL     -0.821732
    184 H88         0.2820   -6.4220    0.8530 ho        1 MOL      0.408957
    185 H89        -0.2180   -6.6240   -0.5610 ho        1 MOL      0.408957
    186 O27         2.5970   -6.7190   -0.4420 oh        1 MOL     -0.821732
    187 H90         2.9880   -7.0370    0.3680 ho        1 MOL      0.408957
    188 H91         3.1600   -7.0760   -1.1360 ho        1 MOL      0.408957
    189 O28         2.1650   -2.8190   -3.1120 oh        1 MOL     -0.821732
    190 H92         2.5420   -3.3710   -3.8030 ho        1 MOL      0.408957
    191 H93         2.6930   -2.0290   -3.1110 ho        1 MOL      0.408957
@<TRIPOS>BOND
     1    1    2 1   
     2    1    4 1   
     3    1    5 1   
     4    1    6 1   
     5    2    3 2   
     6    2    7 1   
     7    7    8 1   
     8    7   15 1   
     9    8    9 1   
    10    8   11 1   
    11    8   16 1   
    12    9   10 2   
    13    9   19 1   
    14   11   12 1   
    15   11   17 1   
    16   11   18 1   
    17   12   13 1   
    18   12   14 1   
    19   19   20 1   
    20   19   28 1   
    21   20   21 1   
    22   20   23 1   
    23   20   29 1   
    24   21   22 2   
    25   21   41 1   
    26   23   24 1   
    27   23   30 1   
    28   23   31 1   
    29   24   25 1   
    30   24   32 1   
    31   24   33 1   
    32   25   26 1   
    33   25   34 1   
    34   25   35 1   
    35   26   27 1   
    36   26   36 1   
    37   26   37 1   
    38   27   38 1   
    39   27   39 1   
    40   27   40 1   
    41   41   42 1   
    42   41   49 1   
    43   42   43 1   
    44   42   45 1   
    45   42   50 1   
    46   43   44 2   
    47   43   53 1   
    48   45   46 1   
    49   45   51 1   
    50   45   52 1   
    51   46   47 1   
    52   46   48 1   
    53   53   54 1   
    54   53   57 1   
    55   54   55 1   
    56   54   58 1   
    57   54   59 1   
    58   55   56 2   
    59   55   60 1   
    60   60   61 1   
    61   60   68 1   
    62   61   62 1   
    63   61   64 1   
    64   61   69 1   
    65   62   63 2   
    66   62   74 1   
    67   64   65 1   
    68   64   70 1   
    69   64   71 1   
    70   65   66 1   
    71   65   67 2   
    72   66   72 1   
    73   66   73 1   
    74   74   75 1   
    75   74   78 1   
    76   75   76 1   
    77   75   79 1   
    78   75   80 1   
    79   76   77 2   
    80   76   81 1   
    81   81   82 1   
    82   81   93 1   
    83   82   83 1   
    84   82   85 1   
    85   82   94 1   
    86   83   84 2   
    87   83  102 1   
    88   85   86 1   
    89   85   95 1   
    90   85   96 1   
    91   86   87 ar  
    92   86   88 ar  
    93   87   89 ar  
    94   87   97 1   
    95   88   90 ar  
    96   88   98 1   
    97   89   91 ar  
    98   89   99 1   
    99   90   91 ar  
   100   90  100 1   
   101   91   92 1   
   102   92  101 1   
   103  102  103 1   
   104  102  110 1   
   105  103  104 1   
   106  103  106 1   
   107  103  111 1   
   108  104  105 2   
   109  104  121 1   
   110  106  107 1   
   111  106  108 1   
   112  106  112 1   
   113  107  109 1   
   114  107  113 1   
   115  107  114 1   
   116  108  115 1   
   117  108  116 1   
   118  108  117 1   
   119  109  118 1   
   120  109  119 1   
   121  109  120 1   
   122  121  122 1   
   123  121  127 1   
   124  122  123 1   
   125  122  125 1   
   126  122  128 1   
   127  123  124 2   
   128  123  132 1   
   129  125  126 1   
   130  125  129 1   
   131  125  130 1   
   132  126  131 1   
   133  132  133 1   
   134  132  137 1   
   135  133  134 1   
   136  133  136 1   
   137  133  138 1   
   138  134  135 2   
   139  134  142 1   
   140  136  139 1   
   141  136  140 1   
   142  136  141 1   
   143  142  143 1   
   144  142  147 1   
   145  143  144 1   
   146  143  146 1   
   147  143  148 1   
   148  144  145 2   
   149  144  152 1   
   150  146  149 1   
   151  146  150 1   
   152  146  151 1   
   153  152  153 1   
   154  152  161 1   
   155  153  154 1   
   156  153  156 1   
   157  153  162 1   
   158  154  155 2   
   159  154  167 1   
   160  156  157 1   
   161  156  163 1   
   162  156  164 1   
   163  157  158 1   
   164  157  165 1   
   165  157  166 1   
   166  158  159 1   
   167  158  160 1   
   168  167  168 1   
   169  167  172 1   
   170  168  169 1   
   171  168  170 1   
   172  168  171 1   
   173  174  175 1   
   174  174  176 1   
   175  177  178 1   
   176  177  179 1   
   177  180  181 1   
   178  180  182 1   
   179  183  184 1   
   180  183  185 1   
   181  186  187 1   
   182  186  188 1   
   183  189  190 1   
   184  189  191 1   
@<TRIPOS>SUBSTRUCTURE
     1 MOL         1 TEMP              0 ****  ****    0 ROOT
