@<TRIPOS>MOLECULE
MOL
  189   185     1     0     0
SMALL
resp


@<TRIPOS>ATOM
      1 C1          5.2110    3.4220   -3.8190 c3        1 MOL     -0.238714
      2 C2          5.9000    2.7310   -2.6220 c         1 MOL      0.738529
      3 O1          5.2330    2.6010   -1.5950 o         1 MOL     -0.623423
      4 H1          4.4880    2.7390   -4.2650 hc        1 MOL      0.058730
      5 H2          4.6970    4.3200   -3.4740 hc        1 MOL      0.058730
      6 H3          5.9590    3.6940   -4.5620 hc        1 MOL      0.058730
      7 N1          7.0970    2.1080   -2.8010 n         1 MOL     -0.784004
      8 C3          7.6580    0.9510   -2.0750 c3        1 MOL      0.278055
      9 C4          6.6240   -0.0750   -1.6820 c         1 MOL      0.533889
     10 O2          6.1450    0.0170   -0.5510 o         1 MOL     -0.529772
     11 C5          8.5340    1.3800   -0.8690 c3        1 MOL     -0.289481
     12 C6          8.2220    2.7130   -0.1780 c         1 MOL      0.822345
     13 O3          7.3710    2.7890    0.7130 o         1 MOL     -0.754703
     14 O4          8.7940    3.7720   -0.5220 o         1 MOL     -0.754703
     15 H4          7.6610    2.4180   -3.5790 hn        1 MOL      0.367330
     16 H5          8.3780    0.4750   -2.7310 h1        1 MOL      0.021840
     17 H6          9.5990    1.3360   -1.0910 hc        1 MOL      0.052371
     18 H7          8.3880    0.5920   -0.1280 hc        1 MOL      0.052371
     19 N2          6.2530   -0.8460   -2.6650 n         1 MOL     -0.558918
     20 C7          5.2030   -1.9130   -2.6640 c3        1 MOL      0.198716
     21 C8          5.5370   -3.1010   -1.7660 c         1 MOL      0.455844
     22 O5          5.9680   -4.1320   -2.3420 o         1 MOL     -0.571066
     23 C9          3.8160   -1.4550   -2.4430 c3        1 MOL      0.075335
     24 C10         2.7880   -2.5190   -2.7650 c3        1 MOL     -0.103132
     25 C11         3.4650   -0.2510   -3.3330 c3        1 MOL     -0.285143
     26 C12         2.7930   -3.1760   -4.2330 c3        1 MOL     -0.312275
     27 H8          6.6540   -0.6000   -3.5600 hn        1 MOL      0.281831
     28 H9          5.2350   -2.2910   -3.6850 h1        1 MOL      0.050402
     29 H10         3.6960   -1.2160   -1.3820 hc        1 MOL     -0.083123
     30 H11         1.8110   -2.0410   -2.6750 hc        1 MOL      0.100720
     31 H12         2.8830   -3.3660   -2.0810 hc        1 MOL      0.100720
     32 H13         3.6840   -0.5030   -4.3780 hc        1 MOL      0.076518
     33 H14         2.3880   -0.0410   -3.3940 hc        1 MOL      0.076518
     34 H15         3.7990    0.7320   -2.9920 hc        1 MOL      0.076518
     35 H16         1.9480   -3.8610   -4.3400 hc        1 MOL      0.066795
     36 H17         2.5610   -2.3530   -4.9010 hc        1 MOL      0.066795
     37 H18         3.7530   -3.6260   -4.4980 hc        1 MOL      0.066795
     38 N3          5.5910   -2.8970   -0.4380 n         1 MOL     -0.180284
     39 C13         5.9410   -3.9660    0.5240 c3        1 MOL     -0.009731
     40 C14         4.7850   -5.0080    0.8270 c         1 MOL      0.561478
     41 O6          5.1050   -6.1550    0.5670 o         1 MOL     -0.585745
     42 C15         6.5760   -3.3620    1.7520 c3        1 MOL     -0.003801
     43 C16         7.7960   -2.5280    1.5370 c         1 MOL      0.643685
     44 O7          7.9940   -1.5270    2.3340 o         1 MOL     -0.689135
     45 O8          8.6210   -2.8590    0.6260 o         1 MOL     -0.689135
     46 H19         5.3490   -1.9880   -0.0470 hn        1 MOL      0.181097
     47 H20         6.7980   -4.5590    0.2020 h1        1 MOL      0.064610
     48 H21         6.9080   -4.1830    2.3970 hc        1 MOL     -0.001796
     49 H22         5.8760   -2.7770    2.3410 hc        1 MOL     -0.001796
     50 N4          3.6270   -4.8270    1.4060 n         1 MOL     -0.566608
     51 C17         3.0140   -3.5760    1.7940 c3        1 MOL      0.312934
     52 C18         1.7660   -3.7180    2.6370 c         1 MOL      0.448436
     53 O9          1.1750   -4.8120    2.7490 o         1 MOL     -0.586858
     54 H23         3.0080   -5.6260    1.3320 hn        1 MOL      0.310161
     55 H24         2.5690   -3.0530    0.9460 h1        1 MOL     -0.022311
     56 H25         3.7040   -2.9790    2.3930 h1        1 MOL     -0.022311
     57 N5          1.2880   -2.7000    3.3140 n         1 MOL     -0.387910
     58 C19         1.8640   -1.3810    3.3340 c3        1 MOL      0.026885
     59 C20         2.1230   -0.6150    2.0150 c         1 MOL      0.381309
     60 O10         3.2280   -0.1370    1.7650 o         1 MOL     -0.536277
     61 C21         3.0040   -1.4040    4.4220 c3        1 MOL     -0.341572
     62 C22         3.6240   -0.0210    4.7360 c         1 MOL      0.791937
     63 O11         4.8620    0.0840    4.8700 o         1 MOL     -0.712452
     64 O12         2.8330    0.9490    4.8980 o         1 MOL     -0.712452
     65 H26         0.3730   -2.8510    3.7210 hn        1 MOL      0.280513
     66 H27         1.0680   -0.8410    3.8420 h1        1 MOL      0.104028
     67 H28         3.7630   -2.1560    4.2430 hc        1 MOL      0.093900
     68 H29         2.5660   -1.7410    5.3620 hc        1 MOL      0.093900
     69 N6          1.1960   -0.5920    1.0540 n         1 MOL     -0.202389
     70 C23        -0.2340   -0.9050    1.1850 c3        1 MOL      0.063396
     71 C24        -0.5990   -2.2830    0.6640 c         1 MOL      0.599357
     72 O13         0.1670   -2.9280   -0.0860 o         1 MOL     -0.539786
     73 H30         1.5030   -0.1520    0.2040 hn        1 MOL      0.218566
     74 H31        -0.8310   -0.1770    0.6310 h1        1 MOL     -0.004799
     75 H32        -0.4010   -0.8730    2.2660 h1        1 MOL     -0.004799
     76 N7         -1.8410   -2.7620    0.9140 n         1 MOL     -0.510494
     77 C25        -2.3180   -4.0460    0.4020 c3        1 MOL     -0.024492
     78 C26        -2.8030   -3.9830   -1.0730 c         1 MOL      0.304487
     79 O14        -2.9500   -4.9950   -1.7910 o         1 MOL     -0.513151
     80 C27        -3.5050   -4.4360    1.2570 c3        1 MOL      0.005311
     81 C28        -4.6730   -3.4360    1.2540 c3        1 MOL     -0.015374
     82 C29        -5.8390   -3.9560    2.0780 c         1 MOL      0.504957
     83 N8         -7.0570   -3.7950    1.6640 n         1 MOL     -0.530227
     84 O15        -5.7130   -4.5790    3.1150 o         1 MOL     -0.562790
     85 H33        -2.4160   -2.1400    1.4680 hn        1 MOL      0.275209
     86 H34        -1.5960   -4.8470    0.5330 h1        1 MOL      0.162721
     87 H35        -3.2100   -4.7410    2.2660 hc        1 MOL      0.038318
     88 H36        -3.8670   -5.3830    0.8490 hc        1 MOL      0.038318
     89 H37        -5.0020   -3.2080    0.2390 hc        1 MOL     -0.008401
     90 H38        -4.3390   -2.4530    1.5940 hc        1 MOL     -0.008401
     91 H39        -7.2490   -3.6210    0.6920 hn        1 MOL      0.285509
     92 H40        -7.7450   -4.2710    2.2370 hn        1 MOL      0.285509
     93 N9         -2.9550   -2.7900   -1.6050 n         1 MOL      0.046810
     94 C30        -3.3450   -2.5950   -3.0360 c3        1 MOL     -0.250919
     95 C31        -4.7450   -1.9330   -3.1540 c         1 MOL      0.469914
     96 O16        -5.3620   -1.9590   -4.2540 o         1 MOL     -0.554081
     97 C32        -2.2650   -1.7580   -3.8060 c3        1 MOL      0.115307
     98 C33        -0.9330   -2.5690   -4.0000 c3        1 MOL     -0.111418
     99 C34        -1.8180   -0.4590   -3.1560 c3        1 MOL     -0.111418
    100 H41        -2.7100   -1.9230   -1.1470 hn        1 MOL      0.175251
    101 H42        -3.3730   -3.5200   -3.6080 h1        1 MOL      0.158431
    102 H43        -2.6640   -1.5620   -4.8030 hc        1 MOL      0.019125
    103 H44        -1.0780   -3.5100   -4.5440 hc        1 MOL      0.030364
    104 H45        -0.2840   -1.9020   -4.5670 hc        1 MOL      0.030364
    105 H46        -0.5290   -2.8400   -3.0290 hc        1 MOL      0.030364
    106 H47        -2.5930    0.0630   -2.5900 hc        1 MOL      0.030364
    107 H48        -0.9410   -0.6550   -2.5500 hc        1 MOL      0.030364
    108 H49        -1.5910    0.2240   -3.9780 hc        1 MOL      0.030364
    109 N10        -5.3260   -1.4120   -2.1020 n         1 MOL     -0.224813
    110 C35        -6.6210   -0.7880   -2.1190 c3        1 MOL      0.056513
    111 C36        -6.5460    0.7040   -1.6670 c         1 MOL      0.487623
    112 O17        -7.4820    1.4930   -1.9160 o         1 MOL     -0.540821
    113 C37        -7.7790   -1.5440   -1.3470 c3        1 MOL     -0.215736
    114 C38        -7.9730   -3.0390   -1.7660 c         1 MOL      0.642945
    115 N11        -8.3770   -3.2740   -2.9560 n         1 MOL     -0.789643
    116 O18        -7.6250   -3.9660   -1.0620 o         1 MOL     -0.561962
    117 H50        -4.9280   -1.5070   -1.1810 hn        1 MOL      0.170910
    118 H51        -6.9780   -0.7030   -3.1460 h1        1 MOL      0.052318
    119 H52        -8.7150   -1.0400   -1.6080 hc        1 MOL      0.088038
    120 H53        -7.5630   -1.4380   -0.2780 hc        1 MOL      0.088038
    121 H54        -8.6460   -2.5300   -3.5870 hn        1 MOL      0.387513
    122 H55        -8.1900   -4.2030   -3.2910 hn        1 MOL      0.387513
    123 N12        -5.5570    1.0710   -0.8600 n         1 MOL     -0.422488
    124 C39        -5.6450    2.2360    0.0160 c3        1 MOL      0.214903
    125 C40        -4.2800    2.9670    0.2020 c         1 MOL      0.302771
    126 O19        -3.2390    2.3080    0.0590 o         1 MOL     -0.406211
    127 C41        -6.2540    1.7960    1.3600 c3        1 MOL     -0.129430
    128 C42        -7.5960    1.0830    1.4320 ca        1 MOL     -0.015355
    129 C43        -8.7540    1.8980    1.0810 ca        1 MOL     -0.075329
    130 C44        -7.7790   -0.2090    1.9320 ca        1 MOL     -0.075329
    131 C45       -10.0070    1.1810    1.1000 ca        1 MOL     -0.348806
    132 C46        -8.9500   -0.8560    1.8440 ca        1 MOL     -0.348806
    133 C47       -10.0960   -0.1550    1.4940 ca        1 MOL      0.451305
    134 O20       -11.3270   -0.6930    1.5270 oh        1 MOL     -0.529889
    135 H56        -4.7990    0.4550   -0.6030 hn        1 MOL      0.196659
    136 H57        -6.3180    2.9160   -0.5060 h1        1 MOL      0.046452
    137 H58        -6.2290    2.6190    2.0660 hc        1 MOL      0.086697
    138 H59        -5.5570    1.1520    1.8830 hc        1 MOL      0.086697
    139 H60        -8.5970    2.8910    0.6900 ha        1 MOL      0.114434
    140 H61        -6.8590   -0.6830    2.2440 ha        1 MOL      0.114434
    141 H62       -10.8400    1.7720    0.7650 ha        1 MOL      0.145282
    142 H63        -9.1520   -1.8670    2.1770 ha        1 MOL      0.145282
    143 H64       -11.9840   -0.0050    1.4220 ho        1 MOL      0.367301
    144 N13        -4.3350    4.2630    0.5020 n         1 MOL     -0.446573
    145 C48        -3.1430    5.0610    0.9630 c3        1 MOL      0.236307
    146 C49        -2.0120    5.2730   -0.0670 c         1 MOL      0.215197
    147 O21        -1.4320    6.3360   -0.0680 o         1 MOL     -0.512503
    148 C50        -2.6680    4.6780    2.3910 c3        1 MOL     -0.017079
    149 C51        -3.8670    4.5670    3.3220 c3        1 MOL     -0.316545
    150 C52        -3.3080    4.6120    4.7850 c         1 MOL      0.675929
    151 O22        -3.0800    3.5220    5.4170 o         1 MOL     -0.706361
    152 O23        -3.0450    5.7360    5.3350 o         1 MOL     -0.706361
    153 H65        -5.2870    4.6200    0.5380 hn        1 MOL      0.281218
    154 H66        -3.5050    6.0860    1.0520 h1        1 MOL      0.033789
    155 H67        -1.9750    5.3920    2.8180 hc        1 MOL      0.085942
    156 H68        -2.2250    3.6750    2.3530 hc        1 MOL      0.085942
    157 H69        -4.5470    3.7340    3.1000 hc        1 MOL      0.030280
    158 H70        -4.5070    5.4450    3.2800 hc        1 MOL      0.030280
    159 N14        -1.5550    4.2730   -0.8010 n         1 MOL     -0.007851
    160 C53        -0.4140    4.2750   -1.7690 c3        1 MOL     -0.061655
    161 C54        -0.8060    5.0200   -3.0960 c         1 MOL      0.397367
    162 O24         0.0300    5.2590   -3.9240 o         1 MOL     -0.504992
    163 C55         0.0210    2.8420   -1.9860 c3        1 MOL     -0.212548
    164 C56         0.4330    2.1910   -0.6870 c3        1 MOL      0.405066
    165 C57         1.9320    2.2870   -0.5090 c         1 MOL      0.651291
    166 O25         2.5060    3.2900   -0.0170 o         1 MOL     -0.696041
    167 O26         2.6290    1.2530   -0.6850 o         1 MOL     -0.696041
    168 H71        -1.9070    3.3270   -0.6620 hn        1 MOL      0.111160
    169 H72         0.4540    4.7770   -1.3310 h1        1 MOL      0.136082
    170 H73         0.8740    2.7400   -2.6550 hc        1 MOL      0.059801
    171 H74        -0.8110    2.2810   -2.4090 hc        1 MOL      0.059801
    172 H75         0.1750    1.1440   -0.8790 hc        1 MOL     -0.170233
    173 H76        -0.0560    2.6510    0.1670 hc        1 MOL     -0.170233
    174 N15        -2.1040    5.3870   -3.2530 n         1 MOL     -0.189358
    175 C58        -2.6980    6.1090   -4.4100 c3        1 MOL     -0.145481
    176 H77        -3.4390    5.4720   -4.8930 h1        1 MOL      0.075209
    177 H78        -3.1780    7.0230   -4.0610 h1        1 MOL      0.075209
    178 H79        -1.9150    6.3580   -5.1250 h1        1 MOL      0.075209
    179 H80        -2.7270    5.0430   -2.5410 hn        1 MOL      0.149875
    180 Ca1         4.8020    1.8050    0.7600 Ca        1 MOL      1.761581
    181 O27         5.1230    4.6940    1.2100 oh        1 MOL     -0.852197
    182 H81         5.9100    4.9540    0.7260 ho        1 MOL      0.407749
    183 H82         4.4440    5.2960    0.8990 ho        1 MOL      0.407749
    184 O28         3.9010    2.6910    3.1580 oh        1 MOL     -0.852197
    185 H83         3.5430    2.3170    3.9660 ho        1 MOL      0.407749
    186 H84         3.7510    3.6300    3.2370 ho        1 MOL      0.407749
    187 O29         6.2090    0.4260    2.5030 oh        1 MOL     -0.852197
    188 H85         6.7970   -0.2990    2.2910 ho        1 MOL      0.407749
    189 H86         5.9120    0.2460    3.3910 ho        1 MOL      0.407749
@<TRIPOS>BOND
     1    1    2 1   
     2    1    4 1   
     3    1    5 1   
     4    1    6 1   
     5    2    3 2   
     6    2    7 1   
     7    7    8 1   
     8    7   15 1   
     9    8    9 1   
    10    8   11 1   
    11    8   16 1   
    12    9   10 2   
    13    9   19 1   
    14   11   12 1   
    15   11   17 1   
    16   11   18 1   
    17   12   13 1   
    18   12   14 1   
    19   19   20 1   
    20   19   27 1   
    21   20   21 1   
    22   20   23 1   
    23   20   28 1   
    24   21   22 2   
    25   21   38 1   
    26   23   24 1   
    27   23   25 1   
    28   23   29 1   
    29   24   26 1   
    30   24   30 1   
    31   24   31 1   
    32   25   32 1   
    33   25   33 1   
    34   25   34 1   
    35   26   35 1   
    36   26   36 1   
    37   26   37 1   
    38   38   39 1   
    39   38   46 1   
    40   39   40 1   
    41   39   42 1   
    42   39   47 1   
    43   40   41 2   
    44   40   50 1   
    45   42   43 1   
    46   42   48 1   
    47   42   49 1   
    48   43   44 1   
    49   43   45 1   
    50   50   51 1   
    51   50   54 1   
    52   51   52 1   
    53   51   55 1   
    54   51   56 1   
    55   52   53 2   
    56   52   57 1   
    57   57   58 1   
    58   57   65 1   
    59   58   59 1   
    60   58   61 1   
    61   58   66 1   
    62   59   60 2   
    63   59   69 1   
    64   61   62 1   
    65   61   67 1   
    66   61   68 1   
    67   62   63 1   
    68   62   64 1   
    69   69   70 1   
    70   69   73 1   
    71   70   71 1   
    72   70   74 1   
    73   70   75 1   
    74   71   72 2   
    75   71   76 1   
    76   76   77 1   
    77   76   85 1   
    78   77   78 1   
    79   77   80 1   
    80   77   86 1   
    81   78   79 2   
    82   78   93 1   
    83   80   81 1   
    84   80   87 1   
    85   80   88 1   
    86   81   82 1   
    87   81   89 1   
    88   81   90 1   
    89   82   83 1   
    90   82   84 2   
    91   83   91 1   
    92   83   92 1   
    93   93   94 1   
    94   93  100 1   
    95   94   95 1   
    96   94   97 1   
    97   94  101 1   
    98   95   96 2   
    99   95  109 1   
   100   97   98 1   
   101   97   99 1   
   102   97  102 1   
   103   98  103 1   
   104   98  104 1   
   105   98  105 1   
   106   99  106 1   
   107   99  107 1   
   108   99  108 1   
   109  109  110 1   
   110  109  117 1   
   111  110  111 1   
   112  110  113 1   
   113  110  118 1   
   114  111  112 2   
   115  111  123 1   
   116  113  114 1   
   117  113  119 1   
   118  113  120 1   
   119  114  115 1   
   120  114  116 2   
   121  115  121 1   
   122  115  122 1   
   123  123  124 1   
   124  123  135 1   
   125  124  125 1   
   126  124  127 1   
   127  124  136 1   
   128  125  126 2   
   129  125  144 1   
   130  127  128 1   
   131  127  137 1   
   132  127  138 1   
   133  128  129 ar  
   134  128  130 ar  
   135  129  131 ar  
   136  129  139 1   
   137  130  132 ar  
   138  130  140 1   
   139  131  133 ar  
   140  131  141 1   
   141  132  133 ar  
   142  132  142 1   
   143  133  134 1   
   144  134  143 1   
   145  144  145 1   
   146  144  153 1   
   147  145  146 1   
   148  145  148 1   
   149  145  154 1   
   150  146  147 2   
   151  146  159 1   
   152  148  149 1   
   153  148  155 1   
   154  148  156 1   
   155  149  150 1   
   156  149  157 1   
   157  149  158 1   
   158  150  151 1   
   159  150  152 1   
   160  159  160 1   
   161  159  168 1   
   162  160  161 1   
   163  160  163 1   
   164  160  169 1   
   165  161  162 2   
   166  161  174 1   
   167  163  164 1   
   168  163  170 1   
   169  163  171 1   
   170  164  165 1   
   171  164  172 1   
   172  164  173 1   
   173  165  166 1   
   174  165  167 1   
   175  174  175 1   
   176  174  179 1   
   177  175  176 1   
   178  175  177 1   
   179  175  178 1   
   180  181  182 1   
   181  181  183 1   
   182  184  185 1   
   183  184  186 1   
   184  187  188 1   
   185  187  189 1   
@<TRIPOS>SUBSTRUCTURE
     1 MOL         1 TEMP              0 ****  ****    0 ROOT
