@<TRIPOS>MOLECULE
MOL
  187   181     1     0     0
SMALL
resp


@<TRIPOS>ATOM
      1 C1         -0.1690   -4.0540    3.0190 c3        1 MOL     -0.093651
      2 C2          1.3400   -3.6950    3.0470 c         1 MOL      0.455203
      3 O1          1.7140   -2.6340    2.5420 o         1 MOL     -0.534204
      4 H1         -0.7600   -3.1390    3.0390 hc        1 MOL      0.018079
      5 H2         -0.3940   -4.6110    2.1090 hc        1 MOL      0.018079
      6 H3         -0.4150   -4.6630    3.8890 hc        1 MOL      0.018079
      7 N1          2.2090   -4.4900    3.6620 n         1 MOL     -0.343090
      8 C3          3.6060   -4.3690    3.7660 c3        1 MOL      0.020520
      9 C4          4.3590   -4.8190    2.5550 c         1 MOL      0.449016
     10 O2          4.3100   -6.0390    2.2350 o         1 MOL     -0.548713
     11 C5          4.1220   -5.0360    5.0410 c3        1 MOL     -0.165467
     12 C6          5.6620   -4.9810    5.1080 c         1 MOL      0.785198
     13 O3          6.2170   -3.9470    4.6000 o         1 MOL     -0.745811
     14 O4          6.2510   -5.8660    5.7350 o         1 MOL     -0.745811
     15 H4          1.7860   -5.2310    4.2120 hn        1 MOL      0.242807
     16 H5          3.7970   -3.2960    3.7620 h1        1 MOL      0.066590
     17 H6          3.8910   -6.1060    5.0260 hc        1 MOL      0.020425
     18 H7          3.7430   -4.5970    5.9600 hc        1 MOL      0.020425
     19 N2          4.9580   -3.9020    1.7940 n         1 MOL     -0.354073
     20 C7          5.5250   -4.0510    0.4600 c3        1 MOL      0.406753
     21 C8          5.0370   -2.9540   -0.4860 c         1 MOL      0.378767
     22 O5          4.1510   -2.1500   -0.1670 o         1 MOL     -0.520151
     23 C9          7.0760   -4.0420    0.5920 c3        1 MOL     -0.376108
     24 H8          4.9040   -2.9320    2.0770 hn        1 MOL      0.232893
     25 H9          5.1830   -5.0300    0.1120 h1        1 MOL     -0.022890
     26 H10         7.2800   -4.6490    1.4720 hc        1 MOL      0.091170
     27 H11         7.5490   -4.4680   -0.2940 hc        1 MOL      0.091170
     28 H12         7.4560   -3.0290    0.6340 hc        1 MOL      0.091170
     29 N3          5.6870   -2.8370   -1.6470 n         1 MOL     -0.337595
     30 C10         5.3880   -1.9150   -2.7120 c3        1 MOL      0.142529
     31 C11         6.1670   -0.5790   -2.5370 c         1 MOL      0.556851
     32 O6          6.9700   -0.1990   -3.4010 o         1 MOL     -0.550224
     33 C12         5.6750   -2.6460   -4.0070 c3        1 MOL     -0.250769
     34 C13         5.0190   -4.0430   -4.1040 c         1 MOL      0.705147
     35 O7          5.6430   -5.0920   -3.9450 o         1 MOL     -0.693872
     36 O8          3.7860   -4.0260   -4.3870 o         1 MOL     -0.693872
     37 H13         6.3760   -3.5480   -1.8010 hn        1 MOL      0.227068
     38 H14         4.3260   -1.6820   -2.6450 h1        1 MOL      0.010051
     39 H15         6.7460   -2.7980   -4.0890 hc        1 MOL      0.039182
     40 H16         5.2790   -2.0420   -4.8310 hc        1 MOL      0.039182
     41 N4          6.1670    0.0510   -1.3440 n         1 MOL     -0.394010
     42 C14         7.2340    1.0730   -0.9760 c3        1 MOL     -0.319475
     43 C15         7.0670    2.4530   -1.5530 c         1 MOL      0.607998
     44 O9          7.9440    3.2530   -1.2630 o         1 MOL     -0.568513
     45 H17         5.4980   -0.2340   -0.6440 hn        1 MOL      0.281233
     46 H18         8.1190    0.7010   -1.4780 h1        1 MOL      0.163618
     47 H19         7.2880    1.0790    0.1140 h1        1 MOL      0.163618
     48 N5          5.8900    2.7790   -2.1170 n         1 MOL     -0.259389
     49 C16         5.5740    4.0290   -2.7110 c3        1 MOL      0.062535
     50 C17         5.3080    5.1440   -1.6760 c         1 MOL      0.422999
     51 O10         5.4840    6.3080   -1.9400 o         1 MOL     -0.501074
     52 C18         4.4420    3.8300   -3.7470 c3        1 MOL     -0.265594
     53 C19         4.0470    5.0120   -4.5770 c         1 MOL      0.640739
     54 N6          4.8650    5.3680   -5.5870 n         1 MOL     -0.790866
     55 O11         3.0010    5.6270   -4.4910 o         1 MOL     -0.500402
     56 H20         5.3650    1.9730   -2.4130 hn        1 MOL      0.173186
     57 H21         6.4250    4.3610   -3.2980 h1        1 MOL      0.060284
     58 H22         3.4760    3.5470   -3.3270 hc        1 MOL      0.098166
     59 H23         4.8040    3.0380   -4.3930 hc        1 MOL      0.098166
     60 H24         5.5910    4.7300   -5.9050 hn        1 MOL      0.344795
     61 H25         4.5510    5.9990   -6.3080 hn        1 MOL      0.344795
     62 N7          4.9780    4.7780   -0.4960 n         1 MOL     -0.224295
     63 C20         4.7370    5.6850    0.6860 c3        1 MOL     -0.144034
     64 C21         3.1780    5.9490    0.8020 c         1 MOL      0.552134
     65 O12         2.4230    5.7460   -0.2060 o         1 MOL     -0.474106
     66 H26         4.9910    3.7960   -0.2980 hn        1 MOL      0.214446
     67 H27         5.3800    6.5720    0.6740 h1        1 MOL      0.089057
     68 H28         4.9590    5.0930    1.5720 h1        1 MOL      0.089057
     69 N8          2.7510    6.3700    1.9600 n         1 MOL     -0.364334
     70 C22         1.4080    6.8680    2.3270 c3        1 MOL     -0.353111
     71 C23         0.3100    5.8200    2.4790 c         1 MOL      0.550590
     72 O13        -0.8730    6.1870    2.3590 o         1 MOL     -0.570544
     73 C24         1.4110    7.8120    3.5040 c3        1 MOL      0.501230
     74 C25         1.5700    7.1010    4.8450 c3        1 MOL     -0.311398
     75 O14         2.4820    8.7320    3.3570 oh        1 MOL     -0.633453
     76 H29         3.4470    6.3320    2.6930 hn        1 MOL      0.229374
     77 H30         1.1560    7.5000    1.4770 h1        1 MOL      0.190456
     78 H31         0.4600    8.3460    3.4400 h1        1 MOL      0.028898
     79 H32         3.2870    8.2250    3.2510 ho        1 MOL      0.373991
     80 H33         0.6500    6.5830    5.1150 hc        1 MOL      0.072376
     81 H34         2.4150    6.4340    4.6850 hc        1 MOL      0.072376
     82 H35         1.8280    7.7990    5.6370 hc        1 MOL      0.072376
     83 N9          0.6880    4.5960    2.7240 n         1 MOL     -0.260223
     84 C26        -0.0740    3.4000    2.7940 c3        1 MOL      0.000425
     85 C27        -0.1680    2.6740    1.4940 c         1 MOL      0.644302
     86 O15         0.9200    2.4800    0.9110 o         1 MOL     -0.560423
     87 C28         0.4680    2.5780    4.0320 c3        1 MOL      0.004756
     88 C29         0.5850    3.3700    5.3100 c3        1 MOL     -0.064459
     89 C30        -0.3150    1.3040    4.2600 c3        1 MOL      0.007732
     90 C31        -0.7950    3.6990    5.9260 c3        1 MOL     -0.106858
     91 H36         1.6890    4.4760    2.8080 hn        1 MOL      0.214593
     92 H37        -1.1050    3.6740    3.0260 h1        1 MOL      0.038769
     93 H38         1.4860    2.2980    3.7720 hc        1 MOL      0.028593
     94 H39         1.0560    4.3550    5.1780 hc        1 MOL      0.028191
     95 H40         1.2220    2.8680    6.0410 hc        1 MOL      0.028191
     96 H41        -0.1250    0.6520    3.4020 hc        1 MOL      0.013932
     97 H42        -0.0790    0.8220    5.2070 hc        1 MOL      0.013932
     98 H43        -1.4010    1.4180    4.2470 hc        1 MOL      0.013932
     99 H44        -0.6940    4.4590    6.6950 hc        1 MOL      0.023716
    100 H45        -1.3740    4.1110    5.1000 hc        1 MOL      0.023716
    101 H46        -1.2480    2.8220    6.3950 hc        1 MOL      0.023716
    102 N10        -1.3300    2.2600    1.1360 n         1 MOL     -0.587714
    103 C32        -1.5490    1.2780    0.0400 c3        1 MOL      0.200531
    104 C33        -2.8500    1.3940   -0.7930 c         1 MOL      0.319836
    105 O16        -2.9090    0.8450   -1.9450 o         1 MOL     -0.472097
    106 C34        -1.5960   -0.1290    0.6890 c3        1 MOL     -0.094335
    107 C35        -1.4970   -1.3280   -0.3620 c         1 MOL      0.668448
    108 O17        -2.0260   -2.4300   -0.2550 o         1 MOL     -0.714566
    109 O18        -0.6250   -1.2090   -1.2690 o         1 MOL     -0.714566
    110 H47        -2.0830    2.5360    1.7400 hn        1 MOL      0.313847
    111 H48        -0.6610    1.2520   -0.5920 h1        1 MOL      0.081594
    112 H49        -2.2890   -0.2300    1.5260 hc        1 MOL      0.035680
    113 H50        -0.6530   -0.2230    1.2130 hc        1 MOL      0.035680
    114 N11        -3.8950    1.9950   -0.1980 n         1 MOL     -0.371205
    115 C36        -5.2090    2.1350   -0.8530 c3        1 MOL      0.461922
    116 C37        -6.2940    1.1840   -0.2250 c         1 MOL      0.111758
    117 O19        -6.4060    1.2730    0.9750 o         1 MOL     -0.431852
    118 C38        -5.7980    3.5280   -0.8230 c3        1 MOL     -0.253732
    119 C39        -6.8550    3.9040   -1.8170 ca        1 MOL      0.187246
    120 C40        -6.4920    4.2500   -3.1270 ca        1 MOL     -0.220105
    121 C41        -8.2020    3.7730   -1.4060 ca        1 MOL     -0.220105
    122 C42        -7.5030    4.5060   -4.0450 ca        1 MOL     -0.085476
    123 C43        -9.2300    4.0660   -2.3130 ca        1 MOL     -0.085476
    124 C44        -8.8870    4.3340   -3.6690 ca        1 MOL     -0.156753
    125 H51        -3.7150    2.5500    0.6260 hn        1 MOL      0.228864
    126 H52        -5.0600    1.9170   -1.9110 h1        1 MOL     -0.044544
    127 H53        -4.9910    4.2480   -0.9120 hc        1 MOL      0.064331
    128 H54        -6.2320    3.6270    0.1710 hc        1 MOL      0.064331
    129 H55        -5.4310    4.3130   -3.3510 ha        1 MOL      0.150831
    130 H56        -8.4460    3.2350   -0.5000 ha        1 MOL      0.150831
    131 H57        -7.1980    4.7520   -5.0490 ha        1 MOL      0.107502
    132 H58       -10.2830    3.9580   -2.0870 ha        1 MOL      0.107502
    133 H59        -9.6720    4.5160   -4.3750 ha        1 MOL      0.110435
    134 N12        -7.0790    0.4120   -0.9920 n         1 MOL      0.057749
    135 C45        -8.2780   -0.2280   -0.5650 c3        1 MOL     -0.034157
    136 C46        -8.1100   -1.4030    0.4840 c         1 MOL      0.429918
    137 O20        -8.8900   -1.5080    1.4140 o         1 MOL     -0.521935
    138 C47        -8.8710   -0.8170   -1.8240 c3        1 MOL     -0.094539
    139 C48        -7.6480   -1.1990   -2.7430 c3        1 MOL     -0.033439
    140 C49        -6.8430    0.0220   -2.3780 c3        1 MOL     -0.220524
    141 H60        -8.9800    0.4850   -0.1290 h1        1 MOL      0.068773
    142 H61        -9.5010   -1.6980   -1.7520 hc        1 MOL      0.045291
    143 H62        -9.4180   -0.0300   -2.3500 hc        1 MOL      0.045291
    144 H63        -7.1500   -2.0950   -2.3730 hc        1 MOL      0.045892
    145 H64        -7.8760   -1.2230   -3.8070 hc        1 MOL      0.045892
    146 H65        -5.8050    0.0200   -2.6970 h1        1 MOL      0.103245
    147 H66        -7.3010    0.8330   -2.9530 h1        1 MOL      0.103245
    148 N13        -7.0560   -2.1880    0.3540 n         1 MOL     -0.164272
    149 C50        -6.6890   -3.1940    1.3740 c3        1 MOL     -0.507667
    150 C51        -6.4420   -2.6760    2.8630 c         1 MOL      0.585687
    151 O21        -6.4700   -3.5020    3.6700 o         1 MOL     -0.513237
    152 C52        -5.4430   -4.0080    1.0680 c3        1 MOL      0.288840
    153 C53        -5.3590   -4.5690   -0.3710 c3        1 MOL     -0.095390
    154 C54        -3.9410   -5.1330   -0.7500 c         1 MOL      0.722522
    155 O22        -3.2180   -4.4960   -1.5980 o         1 MOL     -0.732960
    156 O23        -3.5300   -6.1910   -0.2410 o         1 MOL     -0.732960
    157 H67        -6.4060   -2.0320   -0.4080 hn        1 MOL      0.278407
    158 H68        -7.5280   -3.8730    1.4900 h1        1 MOL      0.196112
    159 H69        -5.3500   -4.8300    1.7790 hc        1 MOL     -0.014956
    160 H70        -4.5130   -3.4340    1.1850 hc        1 MOL     -0.014956
    161 H71        -5.5890   -3.7770   -1.0920 hc        1 MOL     -0.021762
    162 H72        -6.1020   -5.3610   -0.4620 hc        1 MOL     -0.021762
    163 N14        -6.2700   -1.3260    3.0170 n         1 MOL     -0.173041
    164 C55        -6.0970   -0.5720    4.2710 c3        1 MOL     -0.298047
    165 H73        -7.0060   -0.6460    4.8680 h1        1 MOL      0.112537
    166 H74        -5.2590   -0.9880    4.8320 h1        1 MOL      0.112537
    167 H75        -5.8970    0.4740    4.0430 h1        1 MOL      0.112537
    168 H76        -6.2770   -0.7500    2.1820 hn        1 MOL      0.151051
    169 Ca1        -0.7690   -3.8860   -2.0160 Ca        1 MOL      1.805670
    170 O24         1.3020   -2.9780   -3.8500 oh        1 MOL     -0.860524
    171 H77         2.1410   -3.4340   -3.7920 ho        1 MOL      0.417369
    172 H78         1.4800   -2.1910   -4.3510 ho        1 MOL      0.417369
    173 O25         1.4290   -5.6630   -2.4280 oh        1 MOL     -0.860524
    174 H79         1.7790   -6.2210   -1.7320 ho        1 MOL      0.417369
    175 H80         1.8290   -6.0050   -3.2260 ho        1 MOL      0.417369
    176 O26        -1.5000   -5.2420   -4.1660 oh        1 MOL     -0.860524
    177 H81        -0.9880   -5.7040   -4.8360 ho        1 MOL      0.417369
    178 H82        -2.3840   -5.5690   -4.2800 ho        1 MOL      0.417369
    179 O27        -1.7980   -2.3050   -3.9800 oh        1 MOL     -0.860524
    180 H83        -1.4270   -1.4350   -4.1330 ho        1 MOL      0.417369
    181 H84        -2.4360   -2.4320   -4.6890 ho        1 MOL      0.417369
    182 O28         1.2550   -3.3580   -0.2720 oh        1 MOL     -0.860524
    183 H85         1.9740   -3.9760   -0.1910 ho        1 MOL      0.417369
    184 H86         1.2570   -2.8830    0.5620 ho        1 MOL      0.417369
    185 O29        -0.9530   -5.9610   -0.3660 oh        1 MOL     -0.860524
    186 H87        -1.8720   -6.1730   -0.1990 ho        1 MOL      0.417369
    187 H88        -0.4610   -6.5210    0.2380 ho        1 MOL      0.417369
@<TRIPOS>BOND
     1    1    2 1   
     2    1    4 1   
     3    1    5 1   
     4    1    6 1   
     5    2    3 2   
     6    2    7 1   
     7    7    8 1   
     8    7   15 1   
     9    8    9 1   
    10    8   11 1   
    11    8   16 1   
    12    9   10 2   
    13    9   19 1   
    14   11   12 1   
    15   11   17 1   
    16   11   18 1   
    17   12   13 1   
    18   12   14 1   
    19   19   20 1   
    20   19   24 1   
    21   20   21 1   
    22   20   23 1   
    23   20   25 1   
    24   21   22 2   
    25   21   29 1   
    26   23   26 1   
    27   23   27 1   
    28   23   28 1   
    29   29   30 1   
    30   29   37 1   
    31   30   31 1   
    32   30   33 1   
    33   30   38 1   
    34   31   32 2   
    35   31   41 1   
    36   33   34 1   
    37   33   39 1   
    38   33   40 1   
    39   34   35 1   
    40   34   36 1   
    41   41   42 1   
    42   41   45 1   
    43   42   43 1   
    44   42   46 1   
    45   42   47 1   
    46   43   44 2   
    47   43   48 1   
    48   48   49 1   
    49   48   56 1   
    50   49   50 1   
    51   49   52 1   
    52   49   57 1   
    53   50   51 2   
    54   50   62 1   
    55   52   53 1   
    56   52   58 1   
    57   52   59 1   
    58   53   54 1   
    59   53   55 2   
    60   54   60 1   
    61   54   61 1   
    62   62   63 1   
    63   62   66 1   
    64   63   64 1   
    65   63   67 1   
    66   63   68 1   
    67   64   65 2   
    68   64   69 1   
    69   69   70 1   
    70   69   76 1   
    71   70   71 1   
    72   70   73 1   
    73   70   77 1   
    74   71   72 2   
    75   71   83 1   
    76   73   74 1   
    77   73   75 1   
    78   73   78 1   
    79   74   80 1   
    80   74   81 1   
    81   74   82 1   
    82   75   79 1   
    83   83   84 1   
    84   83   91 1   
    85   84   85 1   
    86   84   87 1   
    87   84   92 1   
    88   85   86 2   
    89   85  102 1   
    90   87   88 1   
    91   87   89 1   
    92   87   93 1   
    93   88   90 1   
    94   88   94 1   
    95   88   95 1   
    96   89   96 1   
    97   89   97 1   
    98   89   98 1   
    99   90   99 1   
   100   90  100 1   
   101   90  101 1   
   102  102  103 1   
   103  102  110 1   
   104  103  104 1   
   105  103  106 1   
   106  103  111 1   
   107  104  105 2   
   108  104  114 1   
   109  106  107 1   
   110  106  112 1   
   111  106  113 1   
   112  107  108 1   
   113  107  109 1   
   114  114  115 1   
   115  114  125 1   
   116  115  116 1   
   117  115  118 1   
   118  115  126 1   
   119  116  117 2   
   120  116  134 1   
   121  118  119 1   
   122  118  127 1   
   123  118  128 1   
   124  119  120 ar  
   125  119  121 ar  
   126  120  122 ar  
   127  120  129 1   
   128  121  123 ar  
   129  121  130 1   
   130  122  124 ar  
   131  122  131 1   
   132  123  124 ar  
   133  123  132 1   
   134  124  133 1   
   135  134  135 1   
   136  134  140 1   
   137  135  136 1   
   138  135  138 1   
   139  135  141 1   
   140  136  137 2   
   141  136  148 1   
   142  138  139 1   
   143  138  142 1   
   144  138  143 1   
   145  139  140 1   
   146  139  144 1   
   147  139  145 1   
   148  140  146 1   
   149  140  147 1   
   150  148  149 1   
   151  148  157 1   
   152  149  150 1   
   153  149  152 1   
   154  149  158 1   
   155  150  151 2   
   156  150  163 1   
   157  152  153 1   
   158  152  159 1   
   159  152  160 1   
   160  153  154 1   
   161  153  161 1   
   162  153  162 1   
   163  154  155 1   
   164  154  156 1   
   165  163  164 1   
   166  163  168 1   
   167  164  165 1   
   168  164  166 1   
   169  164  167 1   
   170  170  171 1   
   171  170  172 1   
   172  173  174 1   
   173  173  175 1   
   174  176  177 1   
   175  176  178 1   
   176  179  180 1   
   177  179  181 1   
   178  182  183 1   
   179  182  184 1   
   180  185  186 1   
   181  185  187 1   
@<TRIPOS>SUBSTRUCTURE
     1 MOL         1 TEMP              0 ****  ****    0 ROOT
