@<TRIPOS>MOLECULE
MOL
  198   191     1     0     0
SMALL
resp


@<TRIPOS>ATOM
      1 C1          3.4800   -4.4930   -0.5430 c3        1 MOL     -0.367813
      2 C2          2.4440   -3.4210   -0.5930 c         1 MOL      0.896813
      3 O1          2.8300   -2.3420   -0.9520 o         1 MOL     -0.692792
      4 H1          4.4410   -4.0830   -0.8550 hc        1 MOL      0.086931
      5 H2          3.5610   -4.8730    0.4740 hc        1 MOL      0.086931
      6 H3          3.1970   -5.3040   -1.2140 hc        1 MOL      0.086931
      7 N1          1.1250   -3.5520   -0.2560 n         1 MOL     -0.666797
      8 C3          0.4550   -4.7850    0.2960 c3        1 MOL     -0.009436
      9 C4         -0.1900   -5.6230   -0.8090 c         1 MOL      0.436547
     10 O2         -0.4100   -6.8240   -0.6640 o         1 MOL     -0.571697
     11 C5         -0.5950   -4.4050    1.3520 c3        1 MOL      0.074813
     12 C6          0.0260   -3.7300    2.5410 c         1 MOL      0.616804
     13 O3          1.2740   -3.6410    2.6550 o         1 MOL     -0.634140
     14 O4         -0.7030   -3.1740    3.3960 o         1 MOL     -0.634140
     15 H4          0.5470   -2.7300   -0.3290 hn        1 MOL      0.352519
     16 H5          1.1850   -5.4110    0.7980 h1        1 MOL      0.058723
     17 H6         -1.0960   -5.2710    1.7750 hc        1 MOL      0.007225
     18 H7         -1.3360   -3.8310    0.8150 hc        1 MOL      0.007225
     19 N2         -0.4860   -5.0390   -1.9670 n         1 MOL     -0.103812
     20 C7         -1.3170   -5.5810   -3.0650 c3        1 MOL     -0.319393
     21 C8         -2.7860   -5.7310   -2.6340 c         1 MOL      0.517736
     22 O5         -3.5080   -6.5640   -3.1490 o         1 MOL     -0.547836
     23 C9         -1.0910   -4.9270   -4.4550 c3        1 MOL      0.266655
     24 C10        -1.5490   -3.4280   -4.3770 c3        1 MOL      0.320494
     25 C11         0.2820   -5.1320   -5.0070 c3        1 MOL     -0.287534
     26 C12        -1.9090   -2.8490   -5.7170 c3        1 MOL     -0.284877
     27 H8         -0.1270   -4.0970   -2.0230 hn        1 MOL      0.078651
     28 H9         -0.9310   -6.6010   -3.1490 h1        1 MOL      0.122345
     29 H10        -1.8830   -5.4020   -5.0370 hc        1 MOL     -0.033976
     30 H11        -0.7720   -2.7590   -4.0030 hc        1 MOL     -0.047863
     31 H12        -2.4730   -3.4060   -3.7900 hc        1 MOL     -0.047863
     32 H13         0.3800   -4.5070   -5.9030 hc        1 MOL      0.049924
     33 H14         1.0690   -4.8470   -4.3250 hc        1 MOL      0.049924
     34 H15         0.3480   -6.1830   -5.2960 hc        1 MOL      0.049924
     35 H16        -1.1750   -3.0550   -6.5010 hc        1 MOL      0.041062
     36 H17        -2.8680   -3.2710   -6.0290 hc        1 MOL      0.041062
     37 H18        -2.0340   -1.7770   -5.6210 hc        1 MOL      0.041062
     38 N3         -3.2050   -4.8950   -1.6530 n         1 MOL     -0.045893
     39 C13        -4.4180   -5.1110   -0.9260 c3        1 MOL     -0.185439
     40 C14        -4.3900   -4.1560    0.3210 c         1 MOL      0.316970
     41 O6         -3.9420   -3.0410    0.2520 o         1 MOL     -0.441089
     42 C15        -5.6070   -4.6420   -1.8010 c3        1 MOL     -0.070963
     43 C16        -6.9070   -5.0700   -1.2400 c         1 MOL      0.724916
     44 O7         -7.8940   -4.8670   -2.0320 o         1 MOL     -0.657078
     45 O8         -7.0660   -5.6480   -0.2030 o         1 MOL     -0.657078
     46 H19        -2.6260   -4.1050   -1.4240 hn        1 MOL      0.089370
     47 H20        -4.5510   -6.1680   -0.7170 h1        1 MOL      0.107409
     48 H21        -5.5350   -4.8510   -2.8690 hc        1 MOL      0.030958
     49 H22        -5.5480   -3.5510   -1.6910 hc        1 MOL      0.030958
     50 N4         -4.9730   -4.6460    1.4180 n         1 MOL     -0.321325
     51 C17        -4.9810   -3.9010    2.7050 c3        1 MOL     -0.131499
     52 C18        -5.8930   -2.6780    2.7140 c         1 MOL      0.716091
     53 O9         -5.9670   -1.9970    3.6990 o         1 MOL     -0.627775
     54 H23        -5.6200   -5.3970    1.2360 hn        1 MOL      0.277710
     55 H24        -3.9930   -3.5330    2.9950 h1        1 MOL      0.083052
     56 H25        -5.4600   -4.5170    3.4650 h1        1 MOL      0.083052
     57 N5         -6.5010   -2.3790    1.5990 n         1 MOL     -0.646427
     58 C19        -7.3500   -1.2770    1.2820 c3        1 MOL      0.484343
     59 C20        -6.9890   -0.7490   -0.1110 c         1 MOL      0.394476
     60 O10        -7.0890   -1.4930   -1.1330 o         1 MOL     -0.513246
     61 C21        -8.7960   -1.8330    1.2880 c3        1 MOL     -0.317593
     62 C22        -9.8420   -0.7250    1.4060 c         1 MOL      0.751161
     63 O11       -11.0940   -0.9460    1.2050 o         1 MOL     -0.697029
     64 O12        -9.4600    0.3360    1.7820 o         1 MOL     -0.697029
     65 H26        -6.3320   -3.0520    0.8700 hn        1 MOL      0.326188
     66 H27        -7.1810   -0.4960    2.0220 h1        1 MOL     -0.024344
     67 H28        -8.9070   -2.4870    2.1500 hc        1 MOL      0.072762
     68 H29        -8.8900   -2.4510    0.3950 hc        1 MOL      0.072762
     69 N6         -6.7200    0.5760   -0.2740 n         1 MOL     -0.411367
     70 C23        -6.4210    1.6570    0.6890 c3        1 MOL      0.005838
     71 C24        -6.4480    3.0070    0.0810 c         1 MOL      0.597994
     72 O13        -6.5300    3.1700   -1.1310 o         1 MOL     -0.550220
     73 H30        -6.7210    0.8770   -1.2410 hn        1 MOL      0.260756
     74 H31        -5.3980    1.4850    1.0090 h1        1 MOL      0.093241
     75 H32        -7.1500    1.5090    1.4890 h1        1 MOL      0.093241
     76 N7         -6.2440    4.1020    0.8560 n         1 MOL     -0.551262
     77 C25        -5.6480    4.0520    2.2010 c3        1 MOL      0.121680
     78 C26        -4.2890    3.2810    2.3050 c         1 MOL      0.300205
     79 O14        -4.1740    2.2860    3.0140 o         1 MOL     -0.441064
     80 C27        -6.6080    3.7840    3.3470 c3        1 MOL     -0.037597
     81 C28        -7.8880    4.5600    3.4330 c3        1 MOL     -0.212754
     82 C29        -8.5830    4.2120    4.7410 c         1 MOL      0.653600
     83 N8         -9.3110    3.1090    4.8120 n         1 MOL     -0.750684
     84 O15        -8.5190    4.9670    5.7200 o         1 MOL     -0.608008
     85 H33        -6.2520    4.9770    0.3480 hn        1 MOL      0.302838
     86 H34        -5.3960    5.0880    2.4450 h1        1 MOL      0.048763
     87 H35        -6.0270    3.9320    4.2580 hc        1 MOL      0.054738
     88 H36        -6.9020    2.7420    3.4520 hc        1 MOL      0.054738
     89 H37        -8.5840    4.2130    2.6650 hc        1 MOL      0.059658
     90 H38        -7.7780    5.6440    3.3680 hc        1 MOL      0.059658
     91 H39        -9.3920    2.4490    4.0430 hn        1 MOL      0.360346
     92 H40        -9.8130    2.8770    5.6540 hn        1 MOL      0.360346
     93 N9         -3.3950    3.7140    1.4400 n         1 MOL     -0.279164
     94 C30        -2.2020    2.9550    0.9590 c3        1 MOL      0.024879
     95 C31        -2.1210    2.7150   -0.5360 c         1 MOL      0.553662
     96 O16        -2.6320    3.4810   -1.2920 o         1 MOL     -0.557954
     97 C32        -0.8640    3.3610    1.5200 c3        1 MOL      0.139409
     98 C33        -0.7430    3.4830    3.0820 c3        1 MOL     -0.324602
     99 C34        -0.4780    4.7280    0.9060 c3        1 MOL     -0.324602
    100 H41        -3.5450    4.5610    0.9160 hn        1 MOL      0.230378
    101 H42        -2.2950    1.9230    1.2980 h1        1 MOL      0.064257
    102 H43        -0.1160    2.6400    1.1940 hc        1 MOL      0.032055
    103 H44         0.2740    3.8630    3.2120 hc        1 MOL      0.091178
    104 H45        -1.5420    4.0390    3.5650 hc        1 MOL      0.091178
    105 H46        -0.9150    2.4570    3.4180 hc        1 MOL      0.091178
    106 H47         0.4690    5.0920    1.2950 hc        1 MOL      0.091178
    107 H48        -0.3380    4.6700   -0.1820 hc        1 MOL      0.091178
    108 H49        -1.2910    5.4330    1.1130 hc        1 MOL      0.091178
    109 N10        -1.5130    1.6350   -0.9750 n         1 MOL     -0.437157
    110 C35        -1.4120    1.3250   -2.5000 c3        1 MOL      0.064833
    111 C36        -0.3650    2.1640   -3.1740 c         1 MOL      0.454837
    112 O17        -0.1870    2.0420   -4.3940 o         1 MOL     -0.555133
    113 C37        -1.1230   -0.1460   -2.7640 c3        1 MOL     -0.191224
    114 C38        -1.7800   -1.1410   -1.8000 c         1 MOL      0.621894
    115 N11        -3.0420   -0.9230   -1.5180 n         1 MOL     -0.767849
    116 O18        -1.1200   -2.1230   -1.3580 o         1 MOL     -0.534493
    117 H50        -1.0950    0.9390   -0.3690 hn        1 MOL      0.301494
    118 H51        -2.3290    1.6380   -2.9900 h1        1 MOL      0.105867
    119 H52        -0.0760   -0.3240   -2.5210 hc        1 MOL      0.083247
    120 H53        -1.3880   -0.4240   -3.7900 hc        1 MOL      0.083247
    121 H54        -3.6710   -0.3020   -1.9890 hn        1 MOL      0.372762
    122 H55        -3.4870   -1.6370   -0.9520 hn        1 MOL      0.372762
    123 N12         0.4060    2.9130   -2.3820 n         1 MOL     -0.137046
    124 C39         1.6780    3.4540   -2.8570 c3        1 MOL      0.097774
    125 C40         2.6550    3.5680   -1.6420 c         1 MOL      0.434724
    126 O19         2.1820    3.9190   -0.5950 o         1 MOL     -0.432023
    127 C41         1.4930    4.8100   -3.6090 c3        1 MOL      0.055703
    128 C42         0.8530    5.8830   -2.7670 ca        1 MOL     -0.052295
    129 C43         1.7340    6.8770   -2.1400 ca        1 MOL     -0.114803
    130 C44        -0.5610    6.0340   -2.5750 ca        1 MOL     -0.114803
    131 C45         1.1980    8.0040   -1.4540 ca        1 MOL     -0.260968
    132 C46        -1.0440    7.2320   -1.9580 ca        1 MOL     -0.260968
    133 C47        -0.1900    8.1420   -1.3540 ca        1 MOL      0.309389
    134 O20        -0.6000    9.3100   -0.7570 oh        1 MOL     -0.476754
    135 H56         0.2240    2.8620   -1.3850 hn        1 MOL      0.049512
    136 H57         2.0990    2.8310   -3.6530 h1        1 MOL      0.022608
    137 H58         0.8710    4.5950   -4.4760 hc        1 MOL      0.002783
    138 H59         2.4700    5.1230   -3.9950 hc        1 MOL      0.002783
    139 H60         2.7990    6.7140   -2.1440 ha        1 MOL      0.125784
    140 H61        -1.2050    5.3120   -3.0520 ha        1 MOL      0.125784
    141 H62         1.8560    8.6930   -0.9400 ha        1 MOL      0.150599
    142 H63        -2.1000    7.4250   -2.0430 ha        1 MOL      0.150599
    143 H64        -1.5560    9.3350   -0.7550 ho        1 MOL      0.336199
    144 N13         3.9940    3.6350   -1.9020 n         1 MOL     -0.477173
    145 C48         4.9930    3.9440   -0.9140 c3        1 MOL      0.208947
    146 C49         6.0110    2.7730   -1.0470 c         1 MOL      0.184107
    147 O21         7.0120    3.0090   -1.7270 o         1 MOL     -0.425936
    148 C50         5.6370    5.3810   -1.0950 c3        1 MOL     -0.162354
    149 C51         6.7880    5.5250   -0.0640 c3        1 MOL     -0.117514
    150 C52         7.4670    6.8670   -0.0160 c         1 MOL      0.745931
    151 O22         8.6980    6.9790   -0.2170 o         1 MOL     -0.710145
    152 O23         6.8350    7.8720    0.3450 o         1 MOL     -0.710145
    153 H65         4.3940    3.3980   -2.8080 hn        1 MOL      0.285741
    154 H66         4.5280    3.7610    0.0590 h1        1 MOL      0.011977
    155 H67         4.8420    6.1110   -0.9480 hc        1 MOL      0.073142
    156 H68         6.0910    5.4570   -2.0850 hc        1 MOL      0.073142
    157 H69         7.5980    4.8600   -0.3410 hc        1 MOL      0.012822
    158 H70         6.4520    5.3060    0.9530 hc        1 MOL      0.012822
    159 N14         5.6360    1.5420   -0.5840 n         1 MOL      0.088473
    160 C53         6.2450    0.2790   -0.8290 c3        1 MOL     -0.221843
    161 C54         5.9310   -0.2220   -2.2290 c         1 MOL      0.484381
    162 O24         6.7280   -0.9860   -2.8160 o         1 MOL     -0.556830
    163 C55         5.6630   -0.8040    0.1420 c3        1 MOL     -0.509748
    164 C56         6.1200   -0.5770    1.6010 c3        1 MOL     -0.409974
    165 C57         7.4380   -1.1930    1.9740 c         1 MOL      1.027849
    166 O25         8.2400   -1.7360    1.1770 o         1 MOL     -0.721903
    167 O26         7.7490   -1.1840    3.2080 o         1 MOL     -0.721903
    168 H71         4.7460    1.5450   -0.1180 hn        1 MOL      0.179881
    169 H72         7.3310    0.3550   -0.7420 h1        1 MOL      0.065283
    170 H73         5.8580   -1.8200   -0.1930 hc        1 MOL      0.255890
    171 H74         4.5930   -0.6500    0.0860 hc        1 MOL      0.255890
    172 H75         5.3330   -0.9080    2.2760 hc        1 MOL      0.105939
    173 H76         6.1710    0.4860    1.8580 hc        1 MOL      0.105939
    174 N15         4.7510    0.1330   -2.7870 n         1 MOL     -0.101197
    175 C58         4.2660   -0.2050   -4.1350 c3        1 MOL     -0.246958
    176 H77         4.5890   -1.2140   -4.3950 h1        1 MOL      0.099205
    177 H78         3.1770   -0.1580   -4.1520 h1        1 MOL      0.099205
    178 H79         4.6720    0.5030   -4.8570 h1        1 MOL      0.099205
    179 H80         4.0980    0.7090   -2.2710 hn        1 MOL      0.098624
    180 Ca1         9.9660   -2.8090    2.8160 Ca        1 MOL      1.689534
    181 O27        12.4050   -2.5920    1.7190 oh        1 MOL     -0.863098
    182 H81        13.1300   -2.1330    2.1250 ho        1 MOL      0.373320
    183 H82        12.6570   -2.6900    0.8020 ho        1 MOL      0.373320
    184 O28         9.5890   -2.6140    5.4410 oh        1 MOL     -0.863098
    185 H83         8.9220   -2.6750    6.1210 ho        1 MOL      0.373320
    186 H84        10.3980   -2.4510    5.9190 ho        1 MOL      0.373320
    187 O29         7.8620   -4.3550    3.2170 oh        1 MOL     -0.863098
    188 H85         7.8820   -5.3130    3.2130 ho        1 MOL      0.373320
    189 H86         7.1240   -4.1340    3.7810 ho        1 MOL      0.373320
    190 O30        10.3960   -4.6970    0.8830 oh        1 MOL     -0.863098
    191 H87        10.5950   -5.6310    0.7930 ho        1 MOL      0.373320
    192 H88        10.6120   -4.3260    0.0270 ho        1 MOL      0.373320
    193 O31        11.1100   -4.9540    3.8790 oh        1 MOL     -0.863098
    194 H89        10.9820   -5.6120    4.5600 ho        1 MOL      0.373320
    195 H90        11.9200   -5.2110    3.4400 ho        1 MOL      0.373320
    196 O32        10.5640   -0.3100    3.3010 oh        1 MOL     -0.863098
    197 H91        10.6350    0.2990    4.0340 ho        1 MOL      0.373320
    198 H92        10.1450    0.1940    2.6100 ho        1 MOL      0.373320
@<TRIPOS>BOND
     1    1    2 1   
     2    1    4 1   
     3    1    5 1   
     4    1    6 1   
     5    2    3 2   
     6    2    7 1   
     7    7    8 1   
     8    7   15 1   
     9    8    9 1   
    10    8   11 1   
    11    8   16 1   
    12    9   10 2   
    13    9   19 1   
    14   11   12 1   
    15   11   17 1   
    16   11   18 1   
    17   12   13 1   
    18   12   14 1   
    19   19   20 1   
    20   19   27 1   
    21   20   21 1   
    22   20   23 1   
    23   20   28 1   
    24   21   22 2   
    25   21   38 1   
    26   23   24 1   
    27   23   25 1   
    28   23   29 1   
    29   24   26 1   
    30   24   30 1   
    31   24   31 1   
    32   25   32 1   
    33   25   33 1   
    34   25   34 1   
    35   26   35 1   
    36   26   36 1   
    37   26   37 1   
    38   38   39 1   
    39   38   46 1   
    40   39   40 1   
    41   39   42 1   
    42   39   47 1   
    43   40   41 2   
    44   40   50 1   
    45   42   43 1   
    46   42   48 1   
    47   42   49 1   
    48   43   44 1   
    49   43   45 1   
    50   50   51 1   
    51   50   54 1   
    52   51   52 1   
    53   51   55 1   
    54   51   56 1   
    55   52   53 2   
    56   52   57 1   
    57   57   58 1   
    58   57   65 1   
    59   58   59 1   
    60   58   61 1   
    61   58   66 1   
    62   59   60 2   
    63   59   69 1   
    64   61   62 1   
    65   61   67 1   
    66   61   68 1   
    67   62   63 1   
    68   62   64 1   
    69   69   70 1   
    70   69   73 1   
    71   70   71 1   
    72   70   74 1   
    73   70   75 1   
    74   71   72 2   
    75   71   76 1   
    76   76   77 1   
    77   76   85 1   
    78   77   78 1   
    79   77   80 1   
    80   77   86 1   
    81   78   79 2   
    82   78   93 1   
    83   80   81 1   
    84   80   87 1   
    85   80   88 1   
    86   81   82 1   
    87   81   89 1   
    88   81   90 1   
    89   82   83 1   
    90   82   84 2   
    91   83   91 1   
    92   83   92 1   
    93   93   94 1   
    94   93  100 1   
    95   94   95 1   
    96   94   97 1   
    97   94  101 1   
    98   95   96 2   
    99   95  109 1   
   100   97   98 1   
   101   97   99 1   
   102   97  102 1   
   103   98  103 1   
   104   98  104 1   
   105   98  105 1   
   106   99  106 1   
   107   99  107 1   
   108   99  108 1   
   109  109  110 1   
   110  109  117 1   
   111  110  111 1   
   112  110  113 1   
   113  110  118 1   
   114  111  112 2   
   115  111  123 1   
   116  113  114 1   
   117  113  119 1   
   118  113  120 1   
   119  114  115 1   
   120  114  116 2   
   121  115  121 1   
   122  115  122 1   
   123  123  124 1   
   124  123  135 1   
   125  124  125 1   
   126  124  127 1   
   127  124  136 1   
   128  125  126 2   
   129  125  144 1   
   130  127  128 1   
   131  127  137 1   
   132  127  138 1   
   133  128  129 ar  
   134  128  130 ar  
   135  129  131 ar  
   136  129  139 1   
   137  130  132 ar  
   138  130  140 1   
   139  131  133 ar  
   140  131  141 1   
   141  132  133 ar  
   142  132  142 1   
   143  133  134 1   
   144  134  143 1   
   145  144  145 1   
   146  144  153 1   
   147  145  146 1   
   148  145  148 1   
   149  145  154 1   
   150  146  147 2   
   151  146  159 1   
   152  148  149 1   
   153  148  155 1   
   154  148  156 1   
   155  149  150 1   
   156  149  157 1   
   157  149  158 1   
   158  150  151 1   
   159  150  152 1   
   160  159  160 1   
   161  159  168 1   
   162  160  161 1   
   163  160  163 1   
   164  160  169 1   
   165  161  162 2   
   166  161  174 1   
   167  163  164 1   
   168  163  170 1   
   169  163  171 1   
   170  164  165 1   
   171  164  172 1   
   172  164  173 1   
   173  165  166 1   
   174  165  167 1   
   175  174  175 1   
   176  174  179 1   
   177  175  176 1   
   178  175  177 1   
   179  175  178 1   
   180  181  182 1   
   181  181  183 1   
   182  184  185 1   
   183  184  186 1   
   184  187  188 1   
   185  187  189 1   
   186  190  191 1   
   187  190  192 1   
   188  193  194 1   
   189  193  195 1   
   190  196  197 1   
   191  196  198 1   
@<TRIPOS>SUBSTRUCTURE
     1 MOL         1 TEMP              0 ****  ****    0 ROOT
