@<TRIPOS>MOLECULE
MOL
  181   177     1     0     0
SMALL
resp


@<TRIPOS>ATOM
      1 C1          3.8110   -0.9930    4.9680 c3        1 MOL     -0.301525
      2 C2          4.5950   -0.2300    3.9040 c         1 MOL      0.694104
      3 O1          4.1160    0.2640    2.9410 o         1 MOL     -0.566629
      4 H1          4.2530   -1.9810    5.1060 hc        1 MOL      0.068440
      5 H2          3.8470   -0.4450    5.9100 hc        1 MOL      0.068440
      6 H3          2.7750   -1.1010    4.6490 hc        1 MOL      0.068440
      7 N1          5.9200   -0.0970    4.0940 n         1 MOL     -0.629177
      8 C3          6.9700    0.6010    3.2300 c3        1 MOL      0.500428
      9 C4          7.1230   -0.2040    1.8770 c         1 MOL      0.470152
     10 O2          6.7200   -1.3310    1.6140 o         1 MOL     -0.555542
     11 C5          8.2580    0.7270    4.0220 c3        1 MOL     -0.358393
     12 C6          9.4040    1.4990    3.3170 c         1 MOL      0.743746
     13 O3         10.6730    1.2610    3.4210 o         1 MOL     -0.712743
     14 O4          9.1080    2.4280    2.5250 o         1 MOL     -0.712743
     15 H4          6.3340   -0.4550    4.9370 hn        1 MOL      0.272993
     16 H5          6.5200    1.5850    3.0860 h1        1 MOL     -0.022403
     17 H6          8.6060   -0.2480    4.3380 hc        1 MOL      0.034362
     18 H7          7.9630    1.3500    4.8670 hc        1 MOL      0.034362
     19 N2          7.7820    0.4250    0.8520 n         1 MOL     -0.486328
     20 C7          7.9920    0.0030   -0.5160 c3        1 MOL      0.396299
     21 C8          6.6150   -0.0020   -1.2890 c         1 MOL      0.359756
     22 O5          5.6620    0.7720   -1.0440 o         1 MOL     -0.515931
     23 C9          8.9650    0.9650   -1.1750 c3        1 MOL     -0.261925
     24 H8          8.1460    1.3270    1.1260 hn        1 MOL      0.194456
     25 H9          8.3490   -1.0200   -0.5190 h1        1 MOL     -0.010174
     26 H10         8.7290    2.0190   -1.0240 hc        1 MOL      0.067096
     27 H11        10.0080    0.7010   -1.0010 hc        1 MOL      0.067096
     28 H12         8.7470    0.7670   -2.2290 hc        1 MOL      0.067096
     29 N3          6.5140   -0.9210   -2.2190 n         1 MOL     -0.217584
     30 C10         5.3230   -1.0860   -2.9670 c3        1 MOL     -0.422299
     31 C11         5.0450    0.1480   -3.9180 c         1 MOL      0.867089
     32 O6          5.9310    0.6280   -4.5600 o         1 MOL     -0.588393
     33 C12         5.2840   -2.4000   -3.6630 c3        1 MOL     -0.194490
     34 C13         5.6120   -3.5530   -2.6490 c         1 MOL      0.736384
     35 O7          4.9260   -3.6280   -1.5980 o         1 MOL     -0.698471
     36 O8          6.3940   -4.4000   -3.0200 o         1 MOL     -0.698471
     37 H13         7.3340   -1.4670   -2.4310 hn        1 MOL      0.291838
     38 H14         4.4510   -1.1050   -2.3080 h1        1 MOL      0.058185
     39 H15         6.0710   -2.4070   -4.4200 hc        1 MOL      0.041260
     40 H16         4.3210   -2.5790   -4.1570 hc        1 MOL      0.041260
     41 N4          3.8120    0.6090   -3.9730 n         1 MOL     -0.446569
     42 C14         3.5380    1.7960   -4.8280 c3        1 MOL     -0.236387
     43 C15         2.2200    2.5400   -4.5580 c         1 MOL      0.766090
     44 O9          2.1000    3.5510   -5.2570 o         1 MOL     -0.596405
     45 H17         3.0410    0.1900   -3.4720 hn        1 MOL      0.264727
     46 H18         3.5800    1.4340   -5.8600 h1        1 MOL      0.112095
     47 H19         4.3420    2.5220   -4.6690 h1        1 MOL      0.112095
     48 N5          1.2490    2.0970   -3.7460 n         1 MOL     -0.535436
     49 C16        -0.0730    2.8200   -3.6830 c3        1 MOL     -0.012848
     50 C17         0.1930    4.2030   -3.1290 c         1 MOL      0.450245
     51 O10         1.1880    4.3580   -2.3700 o         1 MOL     -0.477416
     52 C18        -1.0940    2.0730   -2.8070 c3        1 MOL     -0.190117
     53 C19        -1.4760    0.7270   -3.3590 c         1 MOL      0.482625
     54 N6         -1.3560   -0.3940   -2.7310 n         1 MOL     -0.542439
     55 O11        -1.8930    0.7320   -4.5250 o         1 MOL     -0.595290
     56 H20         1.4690    1.3880   -3.0610 hn        1 MOL      0.327147
     57 H21        -0.3970    2.9580   -4.7160 h1        1 MOL      0.093977
     58 H22        -1.9920    2.6770   -2.6310 hc        1 MOL      0.128858
     59 H23        -0.6130    1.9060   -1.8460 hc        1 MOL      0.128858
     60 H24        -0.9060   -0.5290   -1.8380 hn        1 MOL      0.310127
     61 H25        -1.6030   -1.2410   -3.2330 hn        1 MOL      0.310127
     62 N7         -0.7770    5.0710   -3.3330 n         1 MOL     -0.298276
     63 C20        -0.9600    6.2880   -2.4730 c3        1 MOL     -0.139181
     64 C21        -2.2730    6.2440   -1.7130 c         1 MOL      0.541058
     65 O12        -3.3140    5.9540   -2.3560 o         1 MOL     -0.506341
     66 H26        -1.4600    4.9250   -4.0650 hn        1 MOL      0.256266
     67 H27        -1.0040    7.1960   -3.0770 h1        1 MOL      0.098830
     68 H28        -0.1440    6.4080   -1.7610 h1        1 MOL      0.098830
     69 N8         -2.3820    6.6940   -0.4320 n         1 MOL     -0.423159
     70 C22        -3.6440    6.9190    0.3320 c3        1 MOL     -0.244684
     71 C23        -3.8050    5.8050    1.3260 c         1 MOL      0.525105
     72 O13        -4.8870    5.4730    1.7550 o         1 MOL     -0.572524
     73 C24        -3.7640    8.3170    1.0320 c3        1 MOL      0.444331
     74 C25        -2.7890    8.4750    2.2350 c3        1 MOL     -0.181973
     75 O14        -3.5750    9.3660    0.1380 oh        1 MOL     -0.607696
     76 H29        -1.5560    6.9850    0.0720 hn        1 MOL      0.292092
     77 H30        -4.5000    6.7740   -0.3250 h1        1 MOL      0.147211
     78 H31        -4.7680    8.4360    1.4400 h1        1 MOL      0.024896
     79 H32        -2.8380    9.1470   -0.4420 ho        1 MOL      0.356740
     80 H33        -3.3810    8.2420    3.1220 hc        1 MOL      0.029489
     81 H34        -1.9980    7.7420    2.0950 hc        1 MOL      0.029489
     82 H35        -2.4900    9.5250    2.3190 hc        1 MOL      0.029489
     83 N9         -2.6840    5.1720    1.7330 n         1 MOL      0.016484
     84 C26        -2.7290    3.7970    2.3280 c3        1 MOL     -0.213202
     85 C27        -1.9600    2.7770    1.4330 c         1 MOL      0.415943
     86 O15        -1.1920    3.1240    0.5250 o         1 MOL     -0.475147
     87 C28        -2.1470    3.8150    3.7670 c3        1 MOL      0.165810
     88 C29        -0.6490    4.2070    3.8410 c3        1 MOL      0.074736
     89 C30        -3.0030    4.8440    4.5370 c3        1 MOL     -0.351358
     90 C31        -0.1350    4.0000    5.2630 c3        1 MOL     -0.102646
     91 H36        -1.8070    5.4710    1.3380 hn        1 MOL      0.123293
     92 H37        -3.7340    3.4040    2.4690 h1        1 MOL      0.124361
     93 H38        -2.2140    2.8400    4.2570 hc        1 MOL     -0.011695
     94 H39        -0.6350    5.2710    3.6160 hc        1 MOL     -0.000207
     95 H40         0.0240    3.6650    3.1840 hc        1 MOL     -0.000207
     96 H41        -2.7920    5.8520    4.1570 hc        1 MOL      0.078055
     97 H42        -4.0710    4.6040    4.4720 hc        1 MOL      0.078055
     98 H43        -2.7440    4.7660    5.5920 hc        1 MOL      0.078055
     99 H44        -0.1490    2.9400    5.5020 hc        1 MOL      0.024114
    100 H45         0.8950    4.3560    5.3100 hc        1 MOL      0.024114
    101 H46        -0.5960    4.6020    6.0480 hc        1 MOL      0.024114
    102 N10        -2.3640    1.4670    1.5950 n         1 MOL     -0.498911
    103 C32        -1.8260    0.2470    0.8740 c3        1 MOL      0.359382
    104 C33        -2.8910   -0.7630    0.3540 c         1 MOL      0.279768
    105 O16        -2.6980   -1.9490    0.2600 o         1 MOL     -0.419693
    106 C34        -0.6030   -0.4220    1.5470 c3        1 MOL     -0.550083
    107 C35         0.1820   -1.3830    0.6780 c         1 MOL      0.911384
    108 O17         1.1350   -2.0720    1.1540 o         1 MOL     -0.771778
    109 O18         0.2470   -1.2140   -0.5590 o         1 MOL     -0.771778
    110 H47        -2.9660    1.2060    2.3510 hn        1 MOL      0.302029
    111 H48        -1.3460    0.6990    0.0140 h1        1 MOL      0.026037
    112 H49        -0.7950   -0.7760    2.5570 hc        1 MOL      0.176941
    113 H50         0.1190    0.3930    1.6610 hc        1 MOL      0.176941
    114 N11        -4.1140   -0.2500    0.0910 n         1 MOL     -0.578060
    115 C36        -5.1800   -1.0670   -0.5830 c3        1 MOL      0.550902
    116 C37        -5.5130   -2.2470    0.3420 c         1 MOL      0.231300
    117 O19        -5.7820   -1.9510    1.5290 o         1 MOL     -0.509409
    118 C38        -6.3260   -0.1120   -0.8950 c3        1 MOL     -0.288286
    119 C39        -7.5000   -0.7870   -1.6440 ca        1 MOL      0.113284
    120 C40        -7.7280   -0.7550   -3.0560 ca        1 MOL     -0.145787
    121 C41        -8.4390   -1.4360   -0.7930 ca        1 MOL     -0.145787
    122 C42        -8.8460   -1.4070   -3.6080 ca        1 MOL     -0.136611
    123 C43        -9.5320   -2.1020   -1.3270 ca        1 MOL     -0.136611
    124 C44        -9.7640   -2.0800   -2.7060 ca        1 MOL     -0.130371
    125 H51        -4.3830    0.6680    0.4030 hn        1 MOL      0.287812
    126 H52        -4.8550   -1.4170   -1.5720 h1        1 MOL     -0.042464
    127 H53        -5.9130    0.6070   -1.6030 hc        1 MOL      0.088715
    128 H54        -6.7010    0.3320    0.0300 hc        1 MOL      0.088715
    129 H55        -7.0770   -0.2490   -3.7470 ha        1 MOL      0.135318
    130 H56        -8.4430   -1.4780    0.2840 ha        1 MOL      0.135318
    131 H57        -8.9900   -1.4370   -4.6790 ha        1 MOL      0.123863
    132 H58       -10.0590   -2.7080   -0.6180 ha        1 MOL      0.123863
    133 H59       -10.5330   -2.7270   -3.0970 ha        1 MOL      0.104451
    134 N12        -5.5780   -3.5110   -0.1170 n         1 MOL     -0.228836
    135 C45        -5.9400   -4.6790    0.7100 c3        1 MOL      0.310468
    136 C46        -4.9240   -4.9000    1.9000 c         1 MOL      0.172737
    137 O20        -5.3400   -5.4090    2.9220 o         1 MOL     -0.491374
    138 C47        -6.0930   -5.8190   -0.2400 c3        1 MOL     -0.057928
    139 C48        -6.4380   -5.2110   -1.5770 c3        1 MOL      0.009667
    140 C49        -5.6710   -3.8870   -1.5070 c3        1 MOL     -0.011872
    141 H60        -6.8970   -4.5350    1.2120 h1        1 MOL      0.019467
    142 H61        -5.1900   -6.4350   -0.2790 hc        1 MOL      0.018308
    143 H62        -6.9720   -6.3790    0.0860 hc        1 MOL      0.018308
    144 H63        -6.2250   -5.7720   -2.4810 hc        1 MOL      0.014643
    145 H64        -7.5210   -5.0510   -1.5690 hc        1 MOL      0.014643
    146 H65        -4.6950   -4.2140   -1.8730 h1        1 MOL      0.040734
    147 H66        -6.0540   -3.1610   -2.2270 h1        1 MOL      0.040734
    148 N13        -3.6450   -4.5190    1.6830 n         1 MOL     -0.073885
    149 C50        -2.5360   -4.6330    2.6810 c3        1 MOL     -0.212454
    150 C51        -2.6830   -3.6660    3.8600 c         1 MOL      0.500359
    151 O21        -2.0220   -3.8010    4.8250 o         1 MOL     -0.540551
    152 C52        -1.1430   -4.3870    2.0130 c3        1 MOL      0.099026
    153 C53        -0.8450   -5.5150    0.9950 c3        1 MOL     -0.067799
    154 C54         0.3610   -5.2210    0.1870 c         1 MOL      0.776151
    155 O22         0.2270   -4.4740   -0.8090 o         1 MOL     -0.777545
    156 O23         1.5470   -5.4970    0.4020 o         1 MOL     -0.777545
    157 H67        -3.4500   -3.9780    0.8540 hn        1 MOL      0.199844
    158 H68        -2.4930   -5.6210    3.1330 h1        1 MOL      0.144319
    159 H69        -0.3460   -4.4710    2.7570 hc        1 MOL      0.001345
    160 H70        -1.1390   -3.4260    1.4860 hc        1 MOL      0.001345
    161 H71        -1.6560   -5.5940    0.2780 hc        1 MOL     -0.025288
    162 H72        -0.7800   -6.5020    1.4370 hc        1 MOL     -0.025288
    163 N14        -3.5600   -2.6350    3.8170 n         1 MOL     -0.154229
    164 C55        -3.8820   -1.7240    4.8870 c3        1 MOL     -0.313560
    165 H73        -4.0280   -0.7230    4.4800 h1        1 MOL      0.109892
    166 H74        -4.7960   -2.0520    5.3820 h1        1 MOL      0.109892
    167 H75        -3.0640   -1.7060    5.6080 h1        1 MOL      0.109892
    168 H76        -4.0500   -2.4350    2.9500 hn        1 MOL      0.233949
    169 Ca1         2.4820   -3.3080   -0.8690 Ca        1 MOL      1.772355
    170 O24         1.7460   -2.7260   -3.3400 oh        1 MOL     -0.832535
    171 H77         2.0950   -3.1580   -4.1130 ho        1 MOL      0.407879
    172 H78         1.1680   -2.0480   -3.6820 ho        1 MOL      0.407879
    173 O25         3.1870   -3.4950    1.9880 oh        1 MOL     -0.832535
    174 H79         2.7710   -2.6320    1.9080 ho        1 MOL      0.407879
    175 H80         2.9430   -3.8020    2.8520 ho        1 MOL      0.407879
    176 O26         2.5190   -5.7980   -2.4040 oh        1 MOL     -0.832535
    177 H81         3.4130   -6.0970   -2.5900 ho        1 MOL      0.407879
    178 H82         1.9700   -6.5120   -2.7180 ho        1 MOL      0.407879
    179 O27         3.9410   -1.3420    0.0920 oh        1 MOL     -0.832535
    180 H83         4.7400   -1.0140   -0.3230 ho        1 MOL      0.407879
    181 H84         4.0130   -1.0860    1.0100 ho        1 MOL      0.407879
@<TRIPOS>BOND
     1    1    2 1   
     2    1    4 1   
     3    1    5 1   
     4    1    6 1   
     5    2    3 2   
     6    2    7 1   
     7    7    8 1   
     8    7   15 1   
     9    8    9 1   
    10    8   11 1   
    11    8   16 1   
    12    9   10 2   
    13    9   19 1   
    14   11   12 1   
    15   11   17 1   
    16   11   18 1   
    17   12   13 1   
    18   12   14 1   
    19   19   20 1   
    20   19   24 1   
    21   20   21 1   
    22   20   23 1   
    23   20   25 1   
    24   21   22 2   
    25   21   29 1   
    26   23   26 1   
    27   23   27 1   
    28   23   28 1   
    29   29   30 1   
    30   29   37 1   
    31   30   31 1   
    32   30   33 1   
    33   30   38 1   
    34   31   32 2   
    35   31   41 1   
    36   33   34 1   
    37   33   39 1   
    38   33   40 1   
    39   34   35 1   
    40   34   36 1   
    41   41   42 1   
    42   41   45 1   
    43   42   43 1   
    44   42   46 1   
    45   42   47 1   
    46   43   44 2   
    47   43   48 1   
    48   48   49 1   
    49   48   56 1   
    50   49   50 1   
    51   49   52 1   
    52   49   57 1   
    53   50   51 2   
    54   50   62 1   
    55   52   53 1   
    56   52   58 1   
    57   52   59 1   
    58   53   54 1   
    59   53   55 2   
    60   54   60 1   
    61   54   61 1   
    62   62   63 1   
    63   62   66 1   
    64   63   64 1   
    65   63   67 1   
    66   63   68 1   
    67   64   65 2   
    68   64   69 1   
    69   69   70 1   
    70   69   76 1   
    71   70   71 1   
    72   70   73 1   
    73   70   77 1   
    74   71   72 2   
    75   71   83 1   
    76   73   74 1   
    77   73   75 1   
    78   73   78 1   
    79   74   80 1   
    80   74   81 1   
    81   74   82 1   
    82   75   79 1   
    83   83   84 1   
    84   83   91 1   
    85   84   85 1   
    86   84   87 1   
    87   84   92 1   
    88   85   86 2   
    89   85  102 1   
    90   87   88 1   
    91   87   89 1   
    92   87   93 1   
    93   88   90 1   
    94   88   94 1   
    95   88   95 1   
    96   89   96 1   
    97   89   97 1   
    98   89   98 1   
    99   90   99 1   
   100   90  100 1   
   101   90  101 1   
   102  102  103 1   
   103  102  110 1   
   104  103  104 1   
   105  103  106 1   
   106  103  111 1   
   107  104  105 2   
   108  104  114 1   
   109  106  107 1   
   110  106  112 1   
   111  106  113 1   
   112  107  108 1   
   113  107  109 1   
   114  114  115 1   
   115  114  125 1   
   116  115  116 1   
   117  115  118 1   
   118  115  126 1   
   119  116  117 2   
   120  116  134 1   
   121  118  119 1   
   122  118  127 1   
   123  118  128 1   
   124  119  120 ar  
   125  119  121 ar  
   126  120  122 ar  
   127  120  129 1   
   128  121  123 ar  
   129  121  130 1   
   130  122  124 ar  
   131  122  131 1   
   132  123  124 ar  
   133  123  132 1   
   134  124  133 1   
   135  134  135 1   
   136  134  140 1   
   137  135  136 1   
   138  135  138 1   
   139  135  141 1   
   140  136  137 2   
   141  136  148 1   
   142  138  139 1   
   143  138  142 1   
   144  138  143 1   
   145  139  140 1   
   146  139  144 1   
   147  139  145 1   
   148  140  146 1   
   149  140  147 1   
   150  148  149 1   
   151  148  157 1   
   152  149  150 1   
   153  149  152 1   
   154  149  158 1   
   155  150  151 2   
   156  150  163 1   
   157  152  153 1   
   158  152  159 1   
   159  152  160 1   
   160  153  154 1   
   161  153  161 1   
   162  153  162 1   
   163  154  155 1   
   164  154  156 1   
   165  163  164 1   
   166  163  168 1   
   167  164  165 1   
   168  164  166 1   
   169  164  167 1   
   170  170  171 1   
   171  170  172 1   
   172  173  174 1   
   173  173  175 1   
   174  176  177 1   
   175  176  178 1   
   176  179  180 1   
   177  179  181 1   
@<TRIPOS>SUBSTRUCTURE
     1 MOL         1 TEMP              0 ****  ****    0 ROOT
