@<TRIPOS>MOLECULE
MOL
  188   182     1     0     0
SMALL
resp


@<TRIPOS>ATOM
      1 C1          3.6990    0.7510    3.9520 c3        1 MOL     -0.282658
      2 C2          4.5100    0.9470    2.6150 c         1 MOL      0.351707
      3 O1          3.9720    0.7040    1.5460 o         1 MOL     -0.394722
      4 H1          4.3660    0.8830    4.8040 hc        1 MOL      0.075664
      5 H2          2.8970    1.4870    4.0030 hc        1 MOL      0.075664
      6 H3          3.2750   -0.2530    3.9760 hc        1 MOL      0.075664
      7 N1          5.8000    1.4300    2.6540 n         1 MOL     -0.299443
      8 C3          6.7310    1.2030    1.5440 c3        1 MOL     -0.323499
      9 C4          6.9350   -0.3440    1.1540 c         1 MOL      0.556974
     10 O2          7.4090   -0.7000    0.0230 o         1 MOL     -0.445448
     11 C5          6.5530    2.2060    0.4140 c3        1 MOL     -0.216168
     12 C6          7.8060    2.3580   -0.4840 c         1 MOL      0.724532
     13 O3          7.5700    2.1930   -1.7180 o         1 MOL     -0.643512
     14 O4          8.8930    2.9370   -0.1040 o         1 MOL     -0.643512
     15 H4          6.0580    1.7200    3.5830 hn        1 MOL      0.286593
     16 H5          7.7060    1.3700    2.0140 h1        1 MOL      0.118889
     17 H6          6.3000    3.1740    0.8490 hc        1 MOL      0.142883
     18 H7          5.7040    1.8660   -0.1910 hc        1 MOL      0.142883
     19 N2          6.5220   -1.2390    2.0660 n         1 MOL     -0.445846
     20 C7          6.5500   -2.6860    1.7170 c3        1 MOL     -0.094876
     21 C8          5.4190   -3.1610    0.7850 c         1 MOL      0.501403
     22 O5          5.4730   -4.3010    0.3190 o         1 MOL     -0.517473
     23 C9          6.6630   -3.6410    2.9330 c3        1 MOL      0.177692
     24 C10         7.8160   -3.1370    3.8250 c3        1 MOL      0.059684
     25 C11         8.0590   -4.1210    4.9980 c3        1 MOL     -0.184200
     26 C12         6.8090   -4.4010    5.8870 c3        1 MOL      0.189000
     27 N3          7.1930   -5.2670    7.0090 n4        1 MOL     -0.323607
     28 H8          6.1910   -0.9700    2.9920 hn        1 MOL      0.307903
     29 H9          7.5330   -2.8730    1.2610 h1        1 MOL      0.121807
     30 H10         6.8370   -4.6450    2.5410 hc        1 MOL     -0.020539
     31 H11         5.6950   -3.6110    3.4320 hc        1 MOL     -0.020539
     32 H12         7.5180   -2.1470    4.1820 hc        1 MOL     -0.001997
     33 H13         8.7420   -3.1110    3.2600 hc        1 MOL     -0.001997
     34 H14         8.9130   -3.8250    5.6170 hc        1 MOL      0.069044
     35 H15         8.2380   -5.1120    4.5770 hc        1 MOL      0.069044
     36 H16         5.9570   -4.8270    5.3500 hx        1 MOL      0.017455
     37 H17         6.5120   -3.4110    6.2450 hx        1 MOL      0.017455
     38 H18         8.0680   -4.9450    7.3830 hn        1 MOL      0.261061
     39 H19         6.4270   -5.3180    7.6700 hn        1 MOL      0.261061
     40 H20         7.2480   -6.2360    6.7140 hn        1 MOL      0.261061
     41 N4          4.3250   -2.3400    0.6370 n         1 MOL     -0.247103
     42 C13         3.1010   -2.7740   -0.0450 c3        1 MOL     -0.269327
     43 C14         3.3170   -3.0910   -1.5190 c         1 MOL      0.570508
     44 O6          4.2910   -2.6560   -2.1670 o         1 MOL     -0.436482
     45 C15         1.9580   -1.7350    0.1600 c3        1 MOL     -0.005683
     46 C16         0.6340   -1.9900   -0.4620 c         1 MOL      0.839481
     47 O7          0.4880   -2.0600   -1.6960 o         1 MOL     -0.777205
     48 O8         -0.2390   -2.2500    0.3390 o         1 MOL     -0.777205
     49 H21         4.3860   -1.3950    0.9980 hn        1 MOL      0.202131
     50 H22         2.7440   -3.7070    0.3930 h1        1 MOL      0.092131
     51 H23         2.2110   -0.7110   -0.1270 hc        1 MOL      0.074361
     52 H24         1.8310   -1.5960    1.2390 hc        1 MOL      0.074361
     53 N5          2.5520   -4.0670   -2.0410 n         1 MOL     -0.313703
     54 C17         2.7820   -4.6090   -3.3760 c3        1 MOL     -0.227290
     55 C18         2.5500   -3.5970   -4.5410 c         1 MOL      0.541072
     56 O9          3.1190   -3.7890   -5.5790 o         1 MOL     -0.554873
     57 H25         1.8690   -4.4890   -1.4360 hn        1 MOL      0.272611
     58 H26         2.0720   -5.3940   -3.6340 h1        1 MOL      0.120775
     59 H27         3.8230   -4.9490   -3.4290 h1        1 MOL      0.120775
     60 N6          1.8280   -2.4910   -4.3060 n         1 MOL     -0.219335
     61 C19         1.8700   -1.2150   -5.1220 c3        1 MOL     -0.037729
     62 C20         2.2580    0.0350   -4.2990 c         1 MOL      0.470424
     63 O10         2.1840    1.1320   -4.8150 o         1 MOL     -0.546023
     64 C21         0.5650   -0.9590   -5.9900 c3        1 MOL     -0.284401
     65 C22        -0.7890   -0.9560   -5.2550 c         1 MOL      0.819667
     66 N7         -1.7250   -0.2670   -5.8460 n         1 MOL     -0.891377
     67 O11        -0.9920   -1.4560   -4.1790 o         1 MOL     -0.598468
     68 H28         1.2470   -2.5070   -3.4860 hn        1 MOL      0.163070
     69 H29         2.7060   -1.4320   -5.7930 h1        1 MOL      0.130632
     70 H30         0.3800   -1.7640   -6.6920 hc        1 MOL      0.091860
     71 H31         0.7080   -0.0040   -6.4970 hc        1 MOL      0.091860
     72 H32        -1.5600    0.2940   -6.6700 hn        1 MOL      0.371818
     73 H33        -2.6260   -0.1270   -5.4010 hn        1 MOL      0.371818
     74 N8          2.6370   -0.1220   -3.0750 n         1 MOL      0.028986
     75 C23         3.1550    0.8990   -2.1620 c3        1 MOL     -0.116433
     76 C24         2.1640    1.9030   -1.6140 c         1 MOL      0.636692
     77 O12         1.0480    1.9190   -2.0760 o         1 MOL     -0.587933
     78 H34         2.5510   -1.0230   -2.6200 hn        1 MOL     -0.127039
     79 H35         3.9560    1.4840   -2.6140 h1        1 MOL      0.076245
     80 H36         3.6050    0.4080   -1.3020 h1        1 MOL      0.076245
     81 N9          2.4960    2.5550   -0.5360 n         1 MOL     -0.507408
     82 C25         1.3650    3.3820    0.1080 c3        1 MOL      0.431119
     83 C26         0.3530    2.4610    0.8710 c         1 MOL      0.457860
     84 O13         0.6440    1.3980    1.3320 o         1 MOL     -0.510938
     85 C27         1.9430    4.3920    1.0430 c3        1 MOL     -0.243640
     86 C28         2.8180    5.4650    0.3750 ca        1 MOL      0.057414
     87 C29         2.1500    6.6240   -0.0840 ca        1 MOL     -0.220748
     88 C30         4.1850    5.2590    0.0930 ca        1 MOL     -0.220748
     89 C31         2.8940    7.6870   -0.5570 ca        1 MOL     -0.099041
     90 C32         4.9270    6.2680   -0.5030 ca        1 MOL     -0.099041
     91 C33         4.2960    7.5200   -0.7090 ca        1 MOL      0.157229
     92 O14         5.1120    8.5590   -1.2140 oh        1 MOL     -0.410055
     93 H37         3.4140    2.4830   -0.1230 hn        1 MOL      0.310809
     94 H38         0.8020    3.8730   -0.6940 h1        1 MOL     -0.021974
     95 H39         2.6060    3.8700    1.7330 hc        1 MOL      0.072719
     96 H40         1.1220    4.7850    1.6570 hc        1 MOL      0.072719
     97 H41         1.0890    6.7890   -0.0300 ha        1 MOL      0.106961
     98 H42         4.6480    4.3100    0.3090 ha        1 MOL      0.106961
     99 H43         2.4190    8.6360   -0.7240 ha        1 MOL      0.130866
    100 H44         5.9890    6.1120   -0.6110 ha        1 MOL      0.130866
    101 H45         4.5670    9.3430   -1.2930 ho        1 MOL      0.311672
    102 N10        -0.8600    3.0160    1.0230 n         1 MOL     -0.533776
    103 C34        -2.0200    2.3300    1.5920 c3        1 MOL     -0.758447
    104 C35        -3.2490    2.4280    0.7130 c         1 MOL      0.963808
    105 O15        -4.0370    1.5320    0.5590 o         1 MOL     -0.582697
    106 C36        -2.3340    2.7260    3.0390 c3        1 MOL      0.440102
    107 C37        -1.0460    2.5800    3.9350 c3        1 MOL     -0.030553
    108 C38        -3.5000    1.8610    3.5690 c3        1 MOL     -0.512333
    109 C39        -1.2820    3.0500    5.3430 c3        1 MOL     -0.492217
    110 H46        -1.0430    3.8980    0.5440 hn        1 MOL      0.300793
    111 H47        -1.8140    1.2640    1.6380 h1        1 MOL      0.320771
    112 H48        -2.6440    3.7650    3.0940 hc        1 MOL     -0.070398
    113 H49        -0.2200    3.1400    3.5100 hc        1 MOL      0.126955
    114 H50        -0.7820    1.5330    4.0610 hc        1 MOL      0.126955
    115 H51        -4.3530    2.0760    2.9250 hc        1 MOL      0.131815
    116 H52        -3.1630    0.8280    3.5770 hc        1 MOL      0.131815
    117 H53        -3.7510    2.2640    4.5490 hc        1 MOL      0.131815
    118 H54        -1.8670    2.2900    5.8570 hc        1 MOL      0.121140
    119 H55        -0.2550    3.1280    5.7270 hc        1 MOL      0.121140
    120 H56        -1.7540    4.0310    5.3460 hc        1 MOL      0.121140
    121 N11        -3.4250    3.6190    0.1010 n         1 MOL     -0.637487
    122 C40        -4.5680    3.9760   -0.7430 c3        1 MOL     -0.052208
    123 C41        -5.9500    3.6840   -0.1550 c         1 MOL      0.397839
    124 O16        -6.8260    3.4040   -0.9180 o         1 MOL     -0.470458
    125 C42        -4.3720    5.4570   -1.0720 c3        1 MOL      0.188802
    126 O17        -3.5810    5.4890   -2.2560 oh        1 MOL     -0.565064
    127 H57        -2.7750    4.3530    0.3340 hn        1 MOL      0.414818
    128 H58        -4.5240    3.4330   -1.6910 h1        1 MOL      0.109392
    129 H59        -3.7250    5.8290   -0.2770 h1        1 MOL      0.035483
    130 H60        -5.3370    5.9690   -1.1060 h1        1 MOL      0.035483
    131 H61        -4.0900    5.0850   -2.9610 ho        1 MOL      0.387400
    132 N12        -6.0910    3.7450    1.1440 n         1 MOL     -0.229421
    133 C43        -7.1390    3.2870    2.0310 c3        1 MOL      0.060767
    134 C44        -7.6220    1.8710    1.7790 c         1 MOL      0.519217
    135 O18        -8.7730    1.5210    2.1220 o         1 MOL     -0.526163
    136 C45        -8.2820    4.2750    2.1590 c3        1 MOL     -0.458295
    137 H62        -5.2870    4.1750    1.5750 hn        1 MOL      0.199240
    138 H63        -6.5480    3.1870    2.9410 h1        1 MOL      0.089816
    139 H64        -7.8790    5.2830    2.2570 hc        1 MOL      0.141119
    140 H65        -8.8730    4.1980    1.2430 hc        1 MOL      0.141119
    141 H66        -9.0160    4.0660    2.9370 hc        1 MOL      0.141119
    142 N13        -6.7540    1.0760    1.1520 n         1 MOL     -0.444026
    143 C46        -7.1760   -0.1510    0.4960 c3        1 MOL      0.489625
    144 C47        -6.6290   -1.4310    1.1580 c         1 MOL      0.177632
    145 O19        -5.6790   -1.4230    1.9200 o         1 MOL     -0.379024
    146 C48        -6.6690   -0.2050   -0.9160 c3        1 MOL     -0.101652
    147 H67        -5.8850    1.5070    0.8520 hn        1 MOL      0.162655
    148 H68        -8.2590   -0.2220    0.3930 h1        1 MOL     -0.031059
    149 H69        -6.9940    0.7100   -1.4040 hc        1 MOL      0.005675
    150 H70        -5.5920   -0.3050   -0.9040 hc        1 MOL      0.005675
    151 H71        -6.9610   -1.0910   -1.4830 hc        1 MOL      0.005675
    152 N14        -7.1720   -2.6170    0.7940 n         1 MOL     -0.382331
    153 C49        -6.9220   -3.9910    1.3300 c3        1 MOL     -0.343103
    154 C50        -7.0270   -4.0810    2.9050 c         1 MOL      0.526381
    155 O20        -6.5030   -5.0740    3.4110 o         1 MOL     -0.515508
    156 C51        -5.5130   -4.5560    0.8870 c3        1 MOL      0.322508
    157 C52        -5.2770   -4.3750   -0.5450 c3        1 MOL     -0.069125
    158 C53        -3.8000   -4.8590   -0.8070 c         1 MOL      0.554100
    159 O21        -3.6080   -6.0010   -1.2170 o         1 MOL     -0.651505
    160 O22        -2.9290   -3.9800   -0.6300 o         1 MOL     -0.651505
    161 H72        -7.9720   -2.6870    0.1730 hn        1 MOL      0.287259
    162 H73        -7.6000   -4.6690    0.8250 h1        1 MOL      0.153460
    163 H74        -5.4220   -5.6240    1.0820 hc        1 MOL     -0.009561
    164 H75        -4.7680   -3.9900    1.4490 hc        1 MOL     -0.009561
    165 H76        -5.3160   -3.3050   -0.7670 hc        1 MOL     -0.031765
    166 H77        -6.0010   -5.0020   -1.0710 hc        1 MOL     -0.031765
    167 N15        -7.7120   -3.1340    3.5370 n         1 MOL     -0.282501
    168 C54        -7.6470   -3.0900    4.9780 c3        1 MOL     -0.145111
    169 H78        -6.7570   -3.6190    5.3180 h1        1 MOL      0.086169
    170 H79        -7.6000   -2.0520    5.3080 h1        1 MOL      0.086169
    171 H80        -8.5350   -3.5650    5.3970 h1        1 MOL      0.086169
    172 H81        -8.1420   -2.3870    3.0120 hn        1 MOL      0.253603
    173 Ca1        -2.0190   -1.9710   -1.8790 Ca        1 MOL      1.699342
    174 O23        -1.3100    0.7530   -1.5300 oh        1 MOL     -0.799287
    175 H82        -0.4750    1.1400   -1.7920 ho        1 MOL      0.395449
    176 H83        -1.9720    1.3450   -1.8870 ho        1 MOL      0.395449
    177 O24        -0.7810   -4.3930   -3.1610 oh        1 MOL     -0.799287
    178 H84        -0.7960   -4.7900   -4.0310 ho        1 MOL      0.395449
    179 H85        -0.9240   -5.1240   -2.5610 ho        1 MOL      0.395449
    180 O25        -3.3750   -3.2390   -3.9140 oh        1 MOL     -0.799287
    181 H86        -3.9470   -3.9960   -3.9900 ho        1 MOL      0.395449
    182 H87        -3.2960   -2.8930   -4.8000 ho        1 MOL      0.395449
    183 O26        -3.2770   -0.9980    0.1740 oh        1 MOL     -0.799287
    184 H88        -3.4600   -0.0720    0.3210 ho        1 MOL      0.395449
    185 H89        -4.0600   -1.4480    0.5060 ho        1 MOL      0.395449
    186 O27        -3.6870   -0.2830   -3.2680 oh        1 MOL     -0.799287
    187 H90        -3.6250    0.6390   -3.5160 ho        1 MOL      0.395449
    188 H91        -4.5630   -0.5470   -3.5290 ho        1 MOL      0.395449
@<TRIPOS>BOND
     1    1    2 1   
     2    1    4 1   
     3    1    5 1   
     4    1    6 1   
     5    2    3 2   
     6    2    7 1   
     7    7    8 1   
     8    7   15 1   
     9    8    9 1   
    10    8   11 1   
    11    8   16 1   
    12    9   10 2   
    13    9   19 1   
    14   11   12 1   
    15   11   17 1   
    16   11   18 1   
    17   12   13 1   
    18   12   14 1   
    19   19   20 1   
    20   19   28 1   
    21   20   21 1   
    22   20   23 1   
    23   20   29 1   
    24   21   22 2   
    25   21   41 1   
    26   23   24 1   
    27   23   30 1   
    28   23   31 1   
    29   24   25 1   
    30   24   32 1   
    31   24   33 1   
    32   25   26 1   
    33   25   34 1   
    34   25   35 1   
    35   26   27 1   
    36   26   36 1   
    37   26   37 1   
    38   27   38 1   
    39   27   39 1   
    40   27   40 1   
    41   41   42 1   
    42   41   49 1   
    43   42   43 1   
    44   42   45 1   
    45   42   50 1   
    46   43   44 2   
    47   43   53 1   
    48   45   46 1   
    49   45   51 1   
    50   45   52 1   
    51   46   47 1   
    52   46   48 1   
    53   53   54 1   
    54   53   57 1   
    55   54   55 1   
    56   54   58 1   
    57   54   59 1   
    58   55   56 2   
    59   55   60 1   
    60   60   61 1   
    61   60   68 1   
    62   61   62 1   
    63   61   64 1   
    64   61   69 1   
    65   62   63 2   
    66   62   74 1   
    67   64   65 1   
    68   64   70 1   
    69   64   71 1   
    70   65   66 1   
    71   65   67 2   
    72   66   72 1   
    73   66   73 1   
    74   74   75 1   
    75   74   78 1   
    76   75   76 1   
    77   75   79 1   
    78   75   80 1   
    79   76   77 2   
    80   76   81 1   
    81   81   82 1   
    82   81   93 1   
    83   82   83 1   
    84   82   85 1   
    85   82   94 1   
    86   83   84 2   
    87   83  102 1   
    88   85   86 1   
    89   85   95 1   
    90   85   96 1   
    91   86   87 ar  
    92   86   88 ar  
    93   87   89 ar  
    94   87   97 1   
    95   88   90 ar  
    96   88   98 1   
    97   89   91 ar  
    98   89   99 1   
    99   90   91 ar  
   100   90  100 1   
   101   91   92 1   
   102   92  101 1   
   103  102  103 1   
   104  102  110 1   
   105  103  104 1   
   106  103  106 1   
   107  103  111 1   
   108  104  105 2   
   109  104  121 1   
   110  106  107 1   
   111  106  108 1   
   112  106  112 1   
   113  107  109 1   
   114  107  113 1   
   115  107  114 1   
   116  108  115 1   
   117  108  116 1   
   118  108  117 1   
   119  109  118 1   
   120  109  119 1   
   121  109  120 1   
   122  121  122 1   
   123  121  127 1   
   124  122  123 1   
   125  122  125 1   
   126  122  128 1   
   127  123  124 2   
   128  123  132 1   
   129  125  126 1   
   130  125  129 1   
   131  125  130 1   
   132  126  131 1   
   133  132  133 1   
   134  132  137 1   
   135  133  134 1   
   136  133  136 1   
   137  133  138 1   
   138  134  135 2   
   139  134  142 1   
   140  136  139 1   
   141  136  140 1   
   142  136  141 1   
   143  142  143 1   
   144  142  147 1   
   145  143  144 1   
   146  143  146 1   
   147  143  148 1   
   148  144  145 2   
   149  144  152 1   
   150  146  149 1   
   151  146  150 1   
   152  146  151 1   
   153  152  153 1   
   154  152  161 1   
   155  153  154 1   
   156  153  156 1   
   157  153  162 1   
   158  154  155 2   
   159  154  167 1   
   160  156  157 1   
   161  156  163 1   
   162  156  164 1   
   163  157  158 1   
   164  157  165 1   
   165  157  166 1   
   166  158  159 1   
   167  158  160 1   
   168  167  168 1   
   169  167  172 1   
   170  168  169 1   
   171  168  170 1   
   172  168  171 1   
   173  174  175 1   
   174  174  176 1   
   175  177  178 1   
   176  177  179 1   
   177  180  181 1   
   178  180  182 1   
   179  183  184 1   
   180  183  185 1   
   181  186  187 1   
   182  186  188 1   
@<TRIPOS>SUBSTRUCTURE
     1 MOL         1 TEMP              0 ****  ****    0 ROOT
