@<TRIPOS>MOLECULE
MOL
  181   177     1     0     0
SMALL
resp


@<TRIPOS>ATOM
      1 C1         11.3620    5.0850   -0.5130 c3        1 MOL     -0.189711
      2 C2         10.4470    4.3920    0.4520 c         1 MOL      0.641810
      3 O1         10.0670    4.9820    1.4750 o         1 MOL     -0.600347
      4 H1         10.8330    5.2650   -1.4490 hc        1 MOL      0.040575
      5 H2         11.6840    6.0360   -0.0900 hc        1 MOL      0.040575
      6 H3         12.2330    4.4580   -0.7040 hc        1 MOL      0.040575
      7 N1         10.0230    3.1690    0.2210 n         1 MOL     -0.504651
      8 C3         10.4380    2.3050   -0.8570 c3        1 MOL      0.342134
      9 C4         10.7070    0.8200   -0.4890 c         1 MOL      0.294762
     10 O2         10.3360    0.4550    0.6380 o         1 MOL     -0.402745
     11 C5          9.5310    2.4620   -2.0760 c3        1 MOL     -0.148745
     12 C6          8.2010    1.8040   -1.9240 c         1 MOL      0.622211
     13 O3          7.8210    0.9380   -2.7370 o         1 MOL     -0.699386
     14 O4          7.5200    2.0100   -0.8810 o         1 MOL     -0.699386
     15 H4          9.4980    2.6990    0.9400 hn        1 MOL      0.333564
     16 H5         11.4110    2.6080   -1.2590 h1        1 MOL     -0.040397
     17 H6         10.0230    2.0040   -2.9290 hc        1 MOL      0.001277
     18 H7          9.3540    3.5280   -2.2360 hc        1 MOL      0.001277
     19 N2         11.3190    0.0350   -1.4020 n         1 MOL     -0.443434
     20 C7         11.8090   -1.3390   -1.0300 c3        1 MOL      0.147074
     21 C8         10.8520   -2.3540   -0.4950 c         1 MOL      0.565535
     22 O5         11.2840   -3.3500    0.1460 o         1 MOL     -0.541459
     23 C9         13.1420   -1.0360   -0.2760 c3        1 MOL     -0.264225
     24 H8         11.5700    0.3680   -2.3200 hn        1 MOL      0.327842
     25 H9         12.2250   -1.7860   -1.9330 h1        1 MOL      0.030413
     26 H10        13.7690   -0.4010   -0.9030 hc        1 MOL      0.074884
     27 H11        12.8350   -0.4760    0.6160 hc        1 MOL      0.074884
     28 H12        13.6790   -1.9170    0.0680 hc        1 MOL      0.074884
     29 N3          9.5340   -2.3210   -0.8830 n         1 MOL     -0.566902
     30 C10         8.5170   -3.2260   -0.3260 c3        1 MOL      0.358239
     31 C11         7.3260   -3.3140   -1.2700 c         1 MOL      0.451860
     32 O6          7.0490   -2.3980   -2.0880 o         1 MOL     -0.557295
     33 C12         8.0880   -2.8150    1.0970 c3        1 MOL     -0.435642
     34 C13         7.5390   -1.4210    1.2480 c         1 MOL      0.843456
     35 O7          7.6590   -0.8290    2.3320 o         1 MOL     -0.691339
     36 O8          6.8840   -0.9110    0.3360 o         1 MOL     -0.691339
     37 H13         9.1650   -1.5540   -1.4270 hn        1 MOL      0.231200
     38 H14         8.9300   -4.2380   -0.2950 h1        1 MOL     -0.027372
     39 H15         9.0480   -2.8860    1.6180 hc        1 MOL      0.102592
     40 H16         7.3680   -3.5660    1.4270 hc        1 MOL      0.102592
     41 N4          6.6160   -4.4580   -1.2030 n         1 MOL     -0.449707
     42 C14         5.2440   -4.4380   -1.7690 c3        1 MOL     -0.190076
     43 C15         4.2330   -3.4770   -1.0550 c         1 MOL      0.740342
     44 O9          4.4850   -2.3160   -0.6770 o         1 MOL     -0.582712
     45 H17         6.8490   -5.1730   -0.5290 hn        1 MOL      0.322840
     46 H18         4.9640   -5.4810   -1.6180 h1        1 MOL      0.116160
     47 H19         5.2590   -4.2920   -2.8480 h1        1 MOL      0.116160
     48 N5          2.9530   -3.9040   -0.8640 n         1 MOL     -0.660925
     49 C16         1.7760   -3.0920   -0.5170 c3        1 MOL      0.346727
     50 C17         1.9720   -2.2120    0.7660 c         1 MOL      0.405886
     51 O10         2.7280   -2.5510    1.6440 o         1 MOL     -0.503860
     52 C18         0.6330   -4.1280   -0.1710 c3        1 MOL     -0.332890
     53 C19        -0.6100   -3.5400    0.4230 c         1 MOL      0.637631
     54 N6         -0.9850   -3.8550    1.6940 n         1 MOL     -0.738710
     55 O11        -1.2240   -2.6510   -0.2250 o         1 MOL     -0.560975
     56 H20         2.7300   -4.8240   -1.1930 hn        1 MOL      0.282408
     57 H21         1.4490   -2.4970   -1.3650 h1        1 MOL      0.014888
     58 H22         0.9270   -4.9110    0.5350 hc        1 MOL      0.098278
     59 H23         0.4070   -4.6420   -1.1110 hc        1 MOL      0.098278
     60 H24        -0.5390   -4.5980    2.2070 hn        1 MOL      0.358966
     61 H25        -1.8260   -3.3780    2.0110 hn        1 MOL      0.358966
     62 N7          1.3010   -1.0780    0.8270 n         1 MOL     -0.281371
     63 C20         1.3830   -0.1370    2.0220 c3        1 MOL      0.021285
     64 C21         1.4140    1.3670    1.7650 c         1 MOL      0.544958
     65 O12         1.6870    1.7900    0.6310 o         1 MOL     -0.552190
     66 H26         0.7360   -0.8530    0.0230 hn        1 MOL      0.223944
     67 H27         2.3340   -0.3650    2.4850 h1        1 MOL      0.064741
     68 H28         0.5310   -0.3310    2.6800 h1        1 MOL      0.064741
     69 N8          1.1270    2.2350    2.6900 n         1 MOL     -0.327170
     70 C22         0.5760    2.0400    4.0480 c3        1 MOL     -0.299670
     71 C23        -0.8490    1.4170    4.0760 c         1 MOL      0.448612
     72 O13        -1.2570    0.8520    5.1060 o         1 MOL     -0.543255
     73 C24         0.6480    3.3430    4.8680 c3        1 MOL      0.438539
     74 C25         2.0840    3.8630    5.0770 c3        1 MOL     -0.358111
     75 O14         0.1260    4.4340    4.2420 oh        1 MOL     -0.624041
     76 H29         1.1670    3.2300    2.5020 hn        1 MOL      0.280358
     77 H30         1.2570    1.3440    4.5470 h1        1 MOL      0.148049
     78 H31         0.1410    3.1710    5.8180 h1        1 MOL      0.011610
     79 H32        -0.7430    4.7540    4.5130 ho        1 MOL      0.412624
     80 H33         2.6920    3.8830    4.1740 hc        1 MOL      0.097316
     81 H34         2.0040    4.8240    5.5800 hc        1 MOL      0.097316
     82 H35         2.6260    3.1860    5.7450 hc        1 MOL      0.097316
     83 N9         -1.5900    1.3280    2.9620 n         1 MOL     -0.154360
     84 C26        -2.9690    0.7900    2.6810 c3        1 MOL     -0.141812
     85 C27        -2.9510    0.0380    1.3470 c         1 MOL      0.591477
     86 O15        -2.1390    0.3880    0.5240 o         1 MOL     -0.501077
     87 C28        -4.0350    1.9620    2.5220 c3        1 MOL      0.258806
     88 C29        -3.5550    3.1140    1.6480 c3        1 MOL      0.000392
     89 C30        -4.3630    2.4800    3.9570 c3        1 MOL     -0.415373
     90 C31        -4.6800    4.0530    1.3380 c3        1 MOL     -0.175499
     91 H36        -1.1560    1.7360    2.1490 hn        1 MOL      0.136913
     92 H37        -3.3780    0.1010    3.4200 h1        1 MOL      0.139578
     93 H38        -4.9110    1.5430    2.0210 hc        1 MOL      0.008402
     94 H39        -3.1950    2.7620    0.6880 hc        1 MOL      0.002613
     95 H40        -2.7930    3.6820    2.1850 hc        1 MOL      0.002613
     96 H41        -5.0500    3.3250    3.9280 hc        1 MOL      0.095826
     97 H42        -4.8270    1.6140    4.4200 hc        1 MOL      0.095826
     98 H43        -3.4730    2.7950    4.4910 hc        1 MOL      0.095826
     99 H44        -5.0010    4.6270    2.2070 hc        1 MOL      0.035309
    100 H45        -4.4270    4.7110    0.5030 hc        1 MOL      0.035309
    101 H46        -5.4900    3.4150    0.9830 hc        1 MOL      0.035309
    102 N10        -3.8770   -0.8710    0.9450 n         1 MOL     -0.765368
    103 C32        -4.9040   -1.6470    1.6790 c3        1 MOL      0.476178
    104 C33        -6.0590   -2.1350    0.7690 c         1 MOL      0.700613
    105 O16        -5.7540   -2.7490   -0.2230 o         1 MOL     -0.546567
    106 C34        -4.1740   -2.8850    2.3140 c3        1 MOL     -0.592293
    107 C35        -4.9280   -3.6800    3.3840 c         1 MOL      0.800169
    108 O17        -6.0100   -3.3620    3.8730 o         1 MOL     -0.737457
    109 O18        -4.3740   -4.7310    3.8350 o         1 MOL     -0.737457
    110 H47        -3.6490   -1.1150   -0.0100 hn        1 MOL      0.404065
    111 H48        -5.4210   -1.0920    2.4720 h1        1 MOL     -0.053361
    112 H49        -3.2500   -2.4950    2.7460 hc        1 MOL      0.121547
    113 H50        -3.8790   -3.5550    1.4980 hc        1 MOL      0.121547
    114 N11        -7.2060   -1.5290    1.0970 n         1 MOL     -0.849873
    115 C36        -8.3860   -1.5100    0.1710 c3        1 MOL      0.407021
    116 C37        -9.2030   -0.2460    0.4480 c         1 MOL      0.193778
    117 O19        -9.5290   -0.0370    1.6320 o         1 MOL     -0.526693
    118 C38        -9.2840   -2.7580    0.3940 c3        1 MOL     -0.053554
    119 C39       -10.6120   -2.8000   -0.4480 ca        1 MOL     -0.095206
    120 C40       -11.8410   -2.8230    0.2680 ca        1 MOL     -0.049824
    121 C41       -10.5610   -2.7520   -1.8150 ca        1 MOL     -0.049824
    122 C42       -13.0620   -2.5490   -0.3530 ca        1 MOL     -0.192109
    123 C43       -11.8090   -2.6050   -2.4370 ca        1 MOL     -0.192109
    124 C44       -13.0320   -2.3210   -1.7370 ca        1 MOL     -0.034763
    125 H51        -7.3010   -1.1310    2.0210 hn        1 MOL      0.406889
    126 H52        -7.9980   -1.5010   -0.8490 h1        1 MOL      0.013348
    127 H53        -9.6360   -2.8000    1.4300 hc        1 MOL      0.061036
    128 H54        -8.6520   -3.6230    0.2160 hc        1 MOL      0.061036
    129 H55       -11.8500   -3.0340    1.3290 ha        1 MOL      0.114807
    130 H56        -9.6430   -2.8970   -2.3620 ha        1 MOL      0.114807
    131 H57       -13.9480   -2.4710    0.2480 ha        1 MOL      0.113421
    132 H58       -11.7740   -2.5590   -3.5150 ha        1 MOL      0.113421
    133 H59       -13.9150   -2.0690   -2.3220 ha        1 MOL      0.075066
    134 N12        -9.5580    0.6450   -0.4930 n         1 MOL      0.104928
    135 C45        -9.3210    0.5080   -1.9230 c3        1 MOL     -0.023886
    136 C46        -8.1860    1.3010   -2.5440 c         1 MOL      0.489020
    137 O20        -7.8200    1.0360   -3.6780 o         1 MOL     -0.508621
    138 C47       -10.6690    0.8300   -2.5360 c3        1 MOL     -0.040389
    139 C48       -11.1280    2.0330   -1.6830 c3        1 MOL     -0.051698
    140 C49       -10.4250    1.8220   -0.3060 c3        1 MOL      0.035508
    141 H60        -9.1220   -0.5070   -2.2680 h1        1 MOL      0.053469
    142 H61       -10.6610    1.1690   -3.5740 hc        1 MOL      0.018072
    143 H62       -11.3650    0.0040   -2.3850 hc        1 MOL      0.018072
    144 H63       -10.8010    2.9810   -2.1140 hc        1 MOL      0.017687
    145 H64       -12.1950    1.9720   -1.4910 hc        1 MOL      0.017687
    146 H65        -9.8660    2.6970    0.0020 h1        1 MOL      0.025959
    147 H66       -11.2060    1.6960    0.4360 h1        1 MOL      0.025959
    148 N13        -7.5160    2.1640   -1.7680 n         1 MOL     -0.508271
    149 C50        -6.3430    2.9530   -2.1860 c3        1 MOL      0.273543
    150 C51        -6.3850    4.3840   -1.7150 c         1 MOL      0.370828
    151 O21        -7.1430    4.6480   -0.7930 o         1 MOL     -0.559490
    152 C52        -5.1050    2.2240   -1.5800 c3        1 MOL     -0.005758
    153 C53        -4.6930    0.9110   -2.2940 c3        1 MOL     -0.360719
    154 C54        -4.1720    0.9660   -3.7110 c         1 MOL      0.720303
    155 O22        -3.7710    2.0530   -4.1670 o         1 MOL     -0.712500
    156 O23        -4.3090    0.0490   -4.5700 o         1 MOL     -0.712500
    157 H67        -7.8980    2.3110   -0.8440 hn        1 MOL      0.251327
    158 H68        -6.2450    2.8710   -3.2710 h1        1 MOL      0.103934
    159 H69        -5.2270    1.9240   -0.5340 hc        1 MOL      0.037899
    160 H70        -4.2410    2.8860   -1.6330 hc        1 MOL      0.037899
    161 H71        -5.5770    0.2870   -2.4420 hc        1 MOL      0.068251
    162 H72        -3.9860    0.3450   -1.6810 hc        1 MOL      0.068251
    163 N14        -5.7110    5.2950   -2.3850 n         1 MOL     -0.380422
    164 C55        -4.9320    5.1660   -3.6040 c3        1 MOL      0.025853
    165 H73        -5.5210    5.5200   -4.4500 h1        1 MOL      0.030700
    166 H74        -4.0240    5.7630   -3.5200 h1        1 MOL      0.030700
    167 H75        -4.6670    4.1200   -3.7590 h1        1 MOL      0.030700
    168 H76        -5.6270    6.1930   -1.9290 hn        1 MOL      0.269046
    169 Ca1         5.6570   -0.0820   -1.5630 Ca        1 MOL      1.719379
    170 O24         5.0750    1.4040    0.7130 oh        1 MOL     -0.774101
    171 H77         4.7480    2.2140    1.0900 ho        1 MOL      0.383025
    172 H78         5.2200    0.8280    1.4650 ho        1 MOL      0.383025
    173 O25         2.9180    0.2920   -1.4970 oh        1 MOL     -0.774101
    174 H79         2.3980    0.8180   -0.8930 ho        1 MOL      0.383025
    175 H80         2.3630    0.1670   -2.2560 ho        1 MOL      0.383025
    176 O26         4.9240   -1.3290   -3.6870 oh        1 MOL     -0.774101
    177 H81         4.3350   -1.8900   -4.1950 ho        1 MOL      0.383025
    178 H82         5.7230   -1.2900   -4.2160 ho        1 MOL      0.383025
    179 O27         4.7800    1.8820   -3.2590 oh        1 MOL     -0.774101
    180 H83         4.9760    1.7730   -4.1900 ho        1 MOL      0.383025
    181 H84         4.0600    2.5100   -3.2280 ho        1 MOL      0.383025
@<TRIPOS>BOND
     1    1    2 1   
     2    1    4 1   
     3    1    5 1   
     4    1    6 1   
     5    2    3 2   
     6    2    7 1   
     7    7    8 1   
     8    7   15 1   
     9    8    9 1   
    10    8   11 1   
    11    8   16 1   
    12    9   10 2   
    13    9   19 1   
    14   11   12 1   
    15   11   17 1   
    16   11   18 1   
    17   12   13 1   
    18   12   14 1   
    19   19   20 1   
    20   19   24 1   
    21   20   21 1   
    22   20   23 1   
    23   20   25 1   
    24   21   22 2   
    25   21   29 1   
    26   23   26 1   
    27   23   27 1   
    28   23   28 1   
    29   29   30 1   
    30   29   37 1   
    31   30   31 1   
    32   30   33 1   
    33   30   38 1   
    34   31   32 2   
    35   31   41 1   
    36   33   34 1   
    37   33   39 1   
    38   33   40 1   
    39   34   35 1   
    40   34   36 1   
    41   41   42 1   
    42   41   45 1   
    43   42   43 1   
    44   42   46 1   
    45   42   47 1   
    46   43   44 2   
    47   43   48 1   
    48   48   49 1   
    49   48   56 1   
    50   49   50 1   
    51   49   52 1   
    52   49   57 1   
    53   50   51 2   
    54   50   62 1   
    55   52   53 1   
    56   52   58 1   
    57   52   59 1   
    58   53   54 1   
    59   53   55 2   
    60   54   60 1   
    61   54   61 1   
    62   62   63 1   
    63   62   66 1   
    64   63   64 1   
    65   63   67 1   
    66   63   68 1   
    67   64   65 2   
    68   64   69 1   
    69   69   70 1   
    70   69   76 1   
    71   70   71 1   
    72   70   73 1   
    73   70   77 1   
    74   71   72 2   
    75   71   83 1   
    76   73   74 1   
    77   73   75 1   
    78   73   78 1   
    79   74   80 1   
    80   74   81 1   
    81   74   82 1   
    82   75   79 1   
    83   83   84 1   
    84   83   91 1   
    85   84   85 1   
    86   84   87 1   
    87   84   92 1   
    88   85   86 2   
    89   85  102 1   
    90   87   88 1   
    91   87   89 1   
    92   87   93 1   
    93   88   90 1   
    94   88   94 1   
    95   88   95 1   
    96   89   96 1   
    97   89   97 1   
    98   89   98 1   
    99   90   99 1   
   100   90  100 1   
   101   90  101 1   
   102  102  103 1   
   103  102  110 1   
   104  103  104 1   
   105  103  106 1   
   106  103  111 1   
   107  104  105 2   
   108  104  114 1   
   109  106  107 1   
   110  106  112 1   
   111  106  113 1   
   112  107  108 1   
   113  107  109 1   
   114  114  115 1   
   115  114  125 1   
   116  115  116 1   
   117  115  118 1   
   118  115  126 1   
   119  116  117 2   
   120  116  134 1   
   121  118  119 1   
   122  118  127 1   
   123  118  128 1   
   124  119  120 ar  
   125  119  121 ar  
   126  120  122 ar  
   127  120  129 1   
   128  121  123 ar  
   129  121  130 1   
   130  122  124 ar  
   131  122  131 1   
   132  123  124 ar  
   133  123  132 1   
   134  124  133 1   
   135  134  135 1   
   136  134  140 1   
   137  135  136 1   
   138  135  138 1   
   139  135  141 1   
   140  136  137 2   
   141  136  148 1   
   142  138  139 1   
   143  138  142 1   
   144  138  143 1   
   145  139  140 1   
   146  139  144 1   
   147  139  145 1   
   148  140  146 1   
   149  140  147 1   
   150  148  149 1   
   151  148  157 1   
   152  149  150 1   
   153  149  152 1   
   154  149  158 1   
   155  150  151 2   
   156  150  163 1   
   157  152  153 1   
   158  152  159 1   
   159  152  160 1   
   160  153  154 1   
   161  153  161 1   
   162  153  162 1   
   163  154  155 1   
   164  154  156 1   
   165  163  164 1   
   166  163  168 1   
   167  164  165 1   
   168  164  166 1   
   169  164  167 1   
   170  170  171 1   
   171  170  172 1   
   172  173  174 1   
   173  173  175 1   
   174  176  177 1   
   175  176  178 1   
   176  179  180 1   
   177  179  181 1   
@<TRIPOS>SUBSTRUCTURE
     1 MOL         1 TEMP              0 ****  ****    0 ROOT
