@<TRIPOS>MOLECULE
MOL
  175   173     1     0     0
SMALL
resp


@<TRIPOS>ATOM
      1 C1         -6.1550    7.2170    1.6430 c3        1 MOL     -0.380238
      2 C2         -7.1650    6.5290    0.7440 c         1 MOL      0.658420
      3 O1         -7.3290    6.7830   -0.4840 o         1 MOL     -0.581063
      4 H1         -5.3350    6.5310    1.8580 hc        1 MOL      0.099574
      5 H2         -5.7660    8.1020    1.1420 hc        1 MOL      0.099574
      6 H3         -6.6370    7.5090    2.5760 hc        1 MOL      0.099574
      7 N1         -8.0210    5.6250    1.3440 n         1 MOL     -0.625738
      8 C3         -9.0130    4.8770    0.6180 c3        1 MOL      0.584554
      9 C4         -8.4390    3.5340    0.0780 c         1 MOL      0.386434
     10 O2         -9.0390    2.4320    0.1340 o         1 MOL     -0.504455
     11 C5        -10.1690    4.6410    1.5530 c3        1 MOL     -0.376202
     12 C6        -11.6420    4.4540    0.8620 c         1 MOL      0.745533
     13 O3        -12.5720    3.9160    1.4730 o         1 MOL     -0.722913
     14 O4        -11.7230    4.8320   -0.3170 o         1 MOL     -0.722913
     15 H4         -7.8950    5.4580    2.3430 hn        1 MOL      0.282008
     16 H5         -9.4660    5.4400   -0.1990 h1        1 MOL     -0.035615
     17 H6        -10.3200    5.4440    2.2800 hc        1 MOL      0.020499
     18 H7         -9.9890    3.6690    2.0220 hc        1 MOL      0.020499
     19 N2         -7.3080    3.6250   -0.6060 n         1 MOL     -0.667660
     20 C7         -6.8000    2.5690   -1.4770 c3        1 MOL      0.725361
     21 C8         -5.3070    2.4420   -1.2510 c         1 MOL      0.346695
     22 O5         -4.6980    3.3540   -0.7780 o         1 MOL     -0.530737
     23 C9         -7.1060    2.8580   -2.9970 c3        1 MOL     -0.336996
     24 H8         -6.8260    4.5130   -0.6400 hn        1 MOL      0.281544
     25 H9         -7.1920    1.5590   -1.3080 h1        1 MOL     -0.122692
     26 H10        -6.5540    3.7500   -3.2630 hc        1 MOL      0.068261
     27 H11        -6.8200    1.9410   -3.5150 hc        1 MOL      0.068261
     28 H12        -8.1730    3.0050   -3.1990 hc        1 MOL      0.068261
     29 N3         -4.6590    1.3790   -1.5840 n         1 MOL     -0.296488
     30 C10        -5.0420    0.2030   -2.3830 c3        1 MOL     -0.157936
     31 C11        -5.3550   -1.0460   -1.4970 c         1 MOL      0.566882
     32 O6         -4.7260   -1.3400   -0.5050 o         1 MOL     -0.525874
     33 C12        -3.8940   -0.0630   -3.3280 c3        1 MOL     -0.196178
     34 C13        -2.6000   -0.4820   -2.6160 c         1 MOL      0.847717
     35 O7         -2.0950    0.2500   -1.6990 o         1 MOL     -0.768745
     36 O8         -2.0190   -1.5160   -2.8510 o         1 MOL     -0.768745
     37 H13        -3.6620    1.4660   -1.4360 hn        1 MOL      0.257903
     38 H14        -5.9560    0.4050   -2.9260 h1        1 MOL      0.106560
     39 H15        -3.6530    0.8500   -3.8730 hc        1 MOL      0.055755
     40 H16        -4.0910   -0.7870   -4.1250 hc        1 MOL      0.055755
     41 N4         -6.3510   -1.8550   -1.9580 n         1 MOL     -0.373305
     42 C14        -6.8780   -2.9890   -1.2040 c3        1 MOL      0.013493
     43 C15        -6.6280   -4.4560   -1.7540 c         1 MOL      0.447671
     44 O9         -7.5440   -5.2940   -1.8540 o         1 MOL     -0.535792
     45 H17        -6.6780   -1.7410   -2.9050 hn        1 MOL      0.269725
     46 H18        -7.9530   -2.8250   -1.1930 h1        1 MOL      0.069713
     47 H19        -6.5050   -2.9200   -0.1780 h1        1 MOL      0.069713
     48 N5         -5.3940   -4.9570   -1.8770 n         1 MOL     -0.446551
     49 C16        -4.1580   -4.4050   -1.2900 c3        1 MOL     -0.007462
     50 C17        -3.9370   -4.9190    0.1680 c         1 MOL      0.656675
     51 O10        -3.7240   -6.1310    0.4290 o         1 MOL     -0.574472
     52 C18        -2.9760   -4.8100   -2.1530 c3        1 MOL     -0.111429
     53 C19        -1.7000   -4.3470   -1.5510 c         1 MOL      0.564743
     54 N6         -0.5740   -4.5560   -2.1880 n         1 MOL     -0.682130
     55 O11        -1.6490   -3.5550   -0.5830 o         1 MOL     -0.405304
     56 H20        -5.3760   -5.8330   -2.3770 hn        1 MOL      0.316414
     57 H21        -4.1830   -3.3130   -1.3030 h1        1 MOL      0.045429
     58 H22        -3.1560   -4.3670   -3.1340 hc        1 MOL      0.044101
     59 H23        -2.9700   -5.8950   -2.2520 hc        1 MOL      0.044101
     60 H24        -0.4470   -5.2740   -2.8810 hn        1 MOL      0.328685
     61 H25         0.2830   -4.2580   -1.7390 hn        1 MOL      0.328685
     62 N7         -4.0240   -3.9570    1.0640 n         1 MOL     -0.422434
     63 C20        -3.9530   -4.2600    2.5270 c3        1 MOL     -0.139768
     64 C21        -2.4980   -4.6040    3.0070 c         1 MOL      0.493770
     65 O12        -2.3520   -5.0460    4.1420 o         1 MOL     -0.562945
     66 H26        -4.3000   -3.0140    0.8210 hn        1 MOL      0.344148
     67 H27        -4.6220   -5.0080    2.9380 h1        1 MOL      0.106870
     68 H28        -4.3010   -3.3660    3.0480 h1        1 MOL      0.106870
     69 N8         -1.4330   -4.4290    2.1790 n         1 MOL     -0.197659
     70 C22        -0.0040   -4.5020    2.6000 c3        1 MOL     -0.004626
     71 C23         0.7480   -3.2230    2.3870 c         1 MOL      0.398805
     72 O13         0.4300   -2.4230    1.5650 o         1 MOL     -0.407658
     73 C24         0.7160   -5.5800    1.7170 c3        1 MOL      0.483879
     74 C25        -0.0250   -6.9340    1.7270 c3        1 MOL     -0.403282
     75 O14         0.7840   -5.3830    0.3580 oh        1 MOL     -0.603313
     76 H29        -1.6780   -4.0240    1.2950 hn        1 MOL      0.109004
     77 H30         0.0790   -4.8540    3.6320 h1        1 MOL      0.052327
     78 H31         1.6690   -5.8350    2.1900 h1        1 MOL     -0.050705
     79 H32         1.4780   -4.7190    0.2550 ho        1 MOL      0.337720
     80 H33         0.0730   -7.3360    2.7340 hc        1 MOL      0.089332
     81 H34        -1.0260   -6.7960    1.3210 hc        1 MOL      0.089332
     82 H35         0.5030   -7.6100    1.0590 hc        1 MOL      0.089332
     83 N9          1.8990   -3.0240    3.0780 n         1 MOL     -0.444418
     84 C26         2.9930   -2.1520    2.8340 c3        1 MOL      0.146074
     85 C27         3.9260   -2.8180    1.8300 c         1 MOL      0.264548
     86 O15         4.5940   -3.8030    2.1210 o         1 MOL     -0.540369
     87 C28         3.6620   -1.6290    4.1250 c3        1 MOL      0.266034
     88 C29         4.0300   -0.1100    4.1770 c3        1 MOL     -0.195135
     89 C30         2.8080   -1.9510    5.4010 c3        1 MOL     -0.328526
     90 C31         5.1180    0.4320    3.2290 c3        1 MOL     -0.046686
     91 H36         2.1260   -3.7660    3.7330 hn        1 MOL      0.246567
     92 H37         2.6300   -1.2490    2.3390 h1        1 MOL      0.040972
     93 H38         4.6010   -2.1680    4.2560 hc        1 MOL     -0.025610
     94 H39         4.2550    0.1760    5.2010 hc        1 MOL      0.060092
     95 H40         3.0700    0.3910    4.0410 hc        1 MOL      0.060092
     96 H41         3.5430   -1.7070    6.1690 hc        1 MOL      0.070023
     97 H42         2.0110   -1.2170    5.5230 hc        1 MOL      0.070023
     98 H43         2.5300   -2.9920    5.5170 hc        1 MOL      0.070023
     99 H44         4.8780    0.0670    2.2310 hc        1 MOL      0.007644
    100 H45         5.2280    1.5130    3.2260 hc        1 MOL      0.007644
    101 H46         6.0250   -0.0420    3.6260 hc        1 MOL      0.007644
    102 N10         3.9610   -2.2420    0.6240 n         1 MOL     -0.063910
    103 C32         4.7880   -2.8110   -0.4690 c3        1 MOL     -0.007547
    104 C33         5.6670   -1.7980   -1.3000 c         1 MOL      0.530276
    105 O16         5.9830   -2.0570   -2.4380 o         1 MOL     -0.548820
    106 C34         3.8130   -3.6290   -1.3750 c3        1 MOL     -0.059195
    107 C35         2.6440   -2.8160   -1.8180 c         1 MOL      0.636322
    108 O17         1.5100   -3.0990   -1.3250 o         1 MOL     -0.639086
    109 O18         2.7700   -2.0200   -2.7870 o         1 MOL     -0.639086
    110 H47         3.3630   -1.4640    0.4390 hn        1 MOL      0.115406
    111 H48         5.5620   -3.4970   -0.1320 h1        1 MOL      0.073911
    112 H49         3.4700   -4.5040   -0.8270 hc        1 MOL      0.016552
    113 H50         4.3750   -4.0220   -2.2140 hc        1 MOL      0.016552
    114 N11         6.0180   -0.7050   -0.7120 n         1 MOL     -0.560147
    115 C36         6.9280    0.3100   -1.3030 c3        1 MOL      0.394822
    116 C37         6.6410    1.6800   -0.6910 c         1 MOL      0.211085
    117 O19         6.5810    1.6790    0.5570 o         1 MOL     -0.529691
    118 C38         8.4130   -0.1410   -1.0450 c3        1 MOL     -0.143273
    119 C39         9.4470    0.9280   -1.3690 ca        1 MOL      0.083061
    120 C40         9.7150    2.0450   -0.5160 ca        1 MOL     -0.149805
    121 C41        10.3340    0.7150   -2.4410 ca        1 MOL     -0.149805
    122 C42        10.8590    2.8560   -0.7060 ca        1 MOL     -0.099219
    123 C43        11.4030    1.5990   -2.6930 ca        1 MOL     -0.099219
    124 C44        11.7360    2.6610   -1.7910 ca        1 MOL     -0.166506
    125 H51         5.5260   -0.5850    0.1670 hn        1 MOL      0.287829
    126 H52         6.9140    0.3740   -2.3810 h1        1 MOL     -0.010909
    127 H53         8.6320   -1.0750   -1.5730 hc        1 MOL      0.069253
    128 H54         8.4510   -0.4100    0.0130 hc        1 MOL      0.069253
    129 H55         9.0550    2.2140    0.3240 ha        1 MOL      0.115427
    130 H56        10.2020   -0.1170   -3.1100 ha        1 MOL      0.115427
    131 H57        10.8720    3.6510    0.0270 ha        1 MOL      0.101653
    132 H58        11.9170    1.5340   -3.6430 ha        1 MOL      0.101653
    133 H59        12.4630    3.4540   -1.8530 ha        1 MOL      0.127296
    134 N12         6.5940    2.8070   -1.3990 n         1 MOL     -0.026872
    135 C45         6.7050    4.0820   -0.7530 c3        1 MOL      0.275296
    136 C46         5.5020    4.6430    0.0880 c         1 MOL      0.288251
    137 O20         5.5700    5.8430    0.4980 o         1 MOL     -0.528626
    138 C47         6.9620    5.0910   -1.8890 c3        1 MOL     -0.513475
    139 C48         7.4900    4.1820   -3.0570 c3        1 MOL      0.149300
    140 C49         6.6520    2.8920   -2.8670 c3        1 MOL     -0.182654
    141 H60         7.6100    3.9710   -0.1640 h1        1 MOL      0.047428
    142 H61         5.9680    5.4720   -2.1350 hc        1 MOL      0.170804
    143 H62         7.6920    5.8180   -1.5290 hc        1 MOL      0.170804
    144 H63         7.3070    4.5450   -4.0740 hc        1 MOL      0.003628
    145 H64         8.5460    3.9510   -2.9780 hc        1 MOL      0.003628
    146 H65         5.6170    3.0770   -3.1100 h1        1 MOL      0.097276
    147 H66         7.1650    2.0530   -3.3510 h1        1 MOL      0.097276
    148 N13         4.4120    3.8790    0.3370 n         1 MOL     -0.277277
    149 C50         3.0660    4.2630    0.9630 c3        1 MOL     -0.124230
    150 C51         2.9570    4.5910    2.4430 c         1 MOL      0.345350
    151 O21         1.9250    4.5820    3.1460 o         1 MOL     -0.465667
    152 C52         2.0210    3.2190    0.6820 c3        1 MOL     -0.085012
    153 C53         2.2540    1.7690    1.1570 c3        1 MOL      0.044959
    154 C54         1.3760    0.7310    0.5270 c         1 MOL      0.456282
    155 O22         2.0160   -0.1770   -0.0710 o         1 MOL     -0.624113
    156 O23         0.1100    0.7980    0.6520 o         1 MOL     -0.624113
    157 H67         4.4630    2.9940   -0.1490 hn        1 MOL      0.246691
    158 H68         2.7400    5.1730    0.4700 h1        1 MOL      0.160799
    159 H69         1.8710    3.0460   -0.3910 hc        1 MOL      0.057724
    160 H70         1.0610    3.5560    1.0730 hc        1 MOL      0.057724
    161 H71         2.1360    1.6040    2.2320 hc        1 MOL      0.029478
    162 H72         3.3040    1.5700    0.9320 hc        1 MOL      0.029478
    163 N14         4.1170    4.9570    3.0370 n         1 MOL     -0.135372
    164 C55         4.3420    5.3260    4.3920 c3        1 MOL     -0.119187
    165 H73         5.0920    6.1160    4.4340 h1        1 MOL      0.064464
    166 H74         3.4110    5.6870    4.8310 h1        1 MOL      0.064464
    167 H75         4.6960    4.4600    4.9510 h1        1 MOL      0.064464
    168 H76         4.8850    4.9650    2.3840 hn        1 MOL      0.216999
    169 Ca1        -0.3070   -1.3310   -0.7910 Ca        1 MOL      1.674881
    170 O24         0.9040   -0.3800   -3.1420 oh        1 MOL     -0.880533
    171 H77         0.7920    0.0620   -3.9900 ho        1 MOL      0.404471
    172 H78         1.8400   -0.6300   -3.1400 ho        1 MOL      0.404471
    173 O25        -2.3540   -1.1210    0.8870 oh        1 MOL     -0.880533
    174 H79        -2.2860   -0.2540    1.2720 ho        1 MOL      0.404471
    175 H80        -3.1190   -1.0710    0.3130 ho        1 MOL      0.404471
@<TRIPOS>BOND
     1    1    2 1   
     2    1    4 1   
     3    1    5 1   
     4    1    6 1   
     5    2    3 2   
     6    2    7 1   
     7    7    8 1   
     8    7   15 1   
     9    8    9 1   
    10    8   11 1   
    11    8   16 1   
    12    9   10 2   
    13    9   19 1   
    14   11   12 1   
    15   11   17 1   
    16   11   18 1   
    17   12   13 1   
    18   12   14 1   
    19   19   20 1   
    20   19   24 1   
    21   20   21 1   
    22   20   23 1   
    23   20   25 1   
    24   21   22 2   
    25   21   29 1   
    26   23   26 1   
    27   23   27 1   
    28   23   28 1   
    29   29   30 1   
    30   29   37 1   
    31   30   31 1   
    32   30   33 1   
    33   30   38 1   
    34   31   32 2   
    35   31   41 1   
    36   33   34 1   
    37   33   39 1   
    38   33   40 1   
    39   34   35 1   
    40   34   36 1   
    41   41   42 1   
    42   41   45 1   
    43   42   43 1   
    44   42   46 1   
    45   42   47 1   
    46   43   44 2   
    47   43   48 1   
    48   48   49 1   
    49   48   56 1   
    50   49   50 1   
    51   49   52 1   
    52   49   57 1   
    53   50   51 2   
    54   50   62 1   
    55   52   53 1   
    56   52   58 1   
    57   52   59 1   
    58   53   54 1   
    59   53   55 2   
    60   54   60 1   
    61   54   61 1   
    62   62   63 1   
    63   62   66 1   
    64   63   64 1   
    65   63   67 1   
    66   63   68 1   
    67   64   65 2   
    68   64   69 1   
    69   69   70 1   
    70   69   76 1   
    71   70   71 1   
    72   70   73 1   
    73   70   77 1   
    74   71   72 2   
    75   71   83 1   
    76   73   74 1   
    77   73   75 1   
    78   73   78 1   
    79   74   80 1   
    80   74   81 1   
    81   74   82 1   
    82   75   79 1   
    83   83   84 1   
    84   83   91 1   
    85   84   85 1   
    86   84   87 1   
    87   84   92 1   
    88   85   86 2   
    89   85  102 1   
    90   87   88 1   
    91   87   89 1   
    92   87   93 1   
    93   88   90 1   
    94   88   94 1   
    95   88   95 1   
    96   89   96 1   
    97   89   97 1   
    98   89   98 1   
    99   90   99 1   
   100   90  100 1   
   101   90  101 1   
   102  102  103 1   
   103  102  110 1   
   104  103  104 1   
   105  103  106 1   
   106  103  111 1   
   107  104  105 2   
   108  104  114 1   
   109  106  107 1   
   110  106  112 1   
   111  106  113 1   
   112  107  108 1   
   113  107  109 1   
   114  114  115 1   
   115  114  125 1   
   116  115  116 1   
   117  115  118 1   
   118  115  126 1   
   119  116  117 2   
   120  116  134 1   
   121  118  119 1   
   122  118  127 1   
   123  118  128 1   
   124  119  120 ar  
   125  119  121 ar  
   126  120  122 ar  
   127  120  129 1   
   128  121  123 ar  
   129  121  130 1   
   130  122  124 ar  
   131  122  131 1   
   132  123  124 ar  
   133  123  132 1   
   134  124  133 1   
   135  134  135 1   
   136  134  140 1   
   137  135  136 1   
   138  135  138 1   
   139  135  141 1   
   140  136  137 2   
   141  136  148 1   
   142  138  139 1   
   143  138  142 1   
   144  138  143 1   
   145  139  140 1   
   146  139  144 1   
   147  139  145 1   
   148  140  146 1   
   149  140  147 1   
   150  148  149 1   
   151  148  157 1   
   152  149  150 1   
   153  149  152 1   
   154  149  158 1   
   155  150  151 2   
   156  150  163 1   
   157  152  153 1   
   158  152  159 1   
   159  152  160 1   
   160  153  154 1   
   161  153  161 1   
   162  153  162 1   
   163  154  155 1   
   164  154  156 1   
   165  163  164 1   
   166  163  168 1   
   167  164  165 1   
   168  164  166 1   
   169  164  167 1   
   170  170  171 1   
   171  170  172 1   
   172  173  174 1   
   173  173  175 1   
@<TRIPOS>SUBSTRUCTURE
     1 MOL         1 TEMP              0 ****  ****    0 ROOT
