@<TRIPOS>MOLECULE
MOL
  178   175     1     0     0
SMALL
resp


@<TRIPOS>ATOM
      1 C1          1.3200    6.6390   -1.3250 c3        1 MOL     -0.422307
      2 C2          2.7040    6.5960   -0.6220 c         1 MOL      0.702334
      3 O1          2.8760    6.9310    0.5560 o         1 MOL     -0.584830
      4 H1          0.7300    7.4580   -0.9150 hc        1 MOL      0.101592
      5 H2          1.4610    6.7930   -2.3950 hc        1 MOL      0.101592
      6 H3          0.7980    5.6970   -1.1590 hc        1 MOL      0.101592
      7 N1          3.6940    6.0470   -1.4070 n         1 MOL     -0.563779
      8 C3          5.0120    5.8020   -0.7620 c3        1 MOL      0.081192
      9 C4          4.9770    4.3930   -0.0860 c         1 MOL      0.618445
     10 O2          4.7170    3.3800   -0.7350 o         1 MOL     -0.566642
     11 C5          6.0660    5.9880   -1.8250 c3        1 MOL     -0.189041
     12 C6          7.4830    6.0670   -1.2350 c         1 MOL      0.702920
     13 O3          8.2560    5.1230   -1.2510 o         1 MOL     -0.734880
     14 O4          7.7810    7.1130   -0.5940 o         1 MOL     -0.734880
     15 H4          3.5180    5.7110   -2.3410 hn        1 MOL      0.312435
     16 H5          5.1240    6.5660    0.0060 h1        1 MOL      0.052166
     17 H6          5.8940    6.8520   -2.4700 hc        1 MOL      0.022307
     18 H7          6.1310    5.1320   -2.4980 hc        1 MOL      0.022307
     19 N2          5.3480    4.3210    1.2170 n         1 MOL     -0.471058
     20 C7          5.4740    3.1030    2.0540 c3        1 MOL      0.293631
     21 C8          4.0640    2.4840    2.3310 c         1 MOL      0.323335
     22 O5          3.0400    3.1100    2.2690 o         1 MOL     -0.494083
     23 C9          6.2130    3.5990    3.2970 c3        1 MOL     -0.386895
     24 H8          5.7850    5.1460    1.6080 hn        1 MOL      0.280133
     25 H9          6.0640    2.4360    1.4220 h1        1 MOL      0.052499
     26 H10         5.7900    4.5060    3.7230 hc        1 MOL      0.107144
     27 H11         6.2680    2.9010    4.1340 hc        1 MOL      0.107144
     28 H12         7.2320    3.8700    3.0340 hc        1 MOL      0.107144
     29 N3          3.9820    1.2580    2.7540 n         1 MOL     -0.202989
     30 C10         5.0000    0.3030    2.9810 c3        1 MOL      0.101655
     31 C11         5.4180   -0.5710    1.7970 c         1 MOL      0.307474
     32 O6          4.6740   -0.7930    0.8370 o         1 MOL     -0.424757
     33 C12         4.6150   -0.7120    4.1250 c3        1 MOL     -0.125864
     34 C13         3.2250   -1.2760    4.0710 c         1 MOL      0.648157
     35 O7          2.8750   -2.2040    4.8920 o         1 MOL     -0.664503
     36 O8          2.3530   -0.8670    3.2270 o         1 MOL     -0.664503
     37 H13         3.0390    0.9430    2.9400 hn        1 MOL      0.161415
     38 H14         5.8960    0.8350    3.2900 h1        1 MOL      0.016643
     39 H15         4.6940   -0.0450    4.9810 hc        1 MOL      0.022056
     40 H16         5.2890   -1.5520    4.2510 hc        1 MOL      0.022056
     41 N4          6.6640   -1.0790    1.7480 n         1 MOL     -0.282180
     42 C14         7.3120   -1.9170    0.7360 c3        1 MOL      0.053392
     43 C15         8.3990   -1.1780   -0.1240 c         1 MOL      0.591338
     44 O9          9.0330   -0.2140    0.3190 o         1 MOL     -0.528306
     45 H17         7.2890   -0.7030    2.4360 hn        1 MOL      0.220370
     46 H18         6.5410   -2.3860    0.1220 h1        1 MOL      0.032483
     47 H19         7.8540   -2.7380    1.2200 h1        1 MOL      0.032483
     48 N5          8.6940   -1.7430   -1.2720 n         1 MOL     -0.520021
     49 C16         7.8770   -2.6780   -2.0440 c3        1 MOL      0.030867
     50 C17         6.5410   -2.0590   -2.5130 c         1 MOL      0.614039
     51 O10         6.5060   -0.9640   -3.0800 o         1 MOL     -0.501066
     52 C18         8.7540   -3.2790   -3.1570 c3        1 MOL     -0.283438
     53 C19         9.9220   -4.0050   -2.6600 c         1 MOL      0.727903
     54 N6          9.8070   -5.2800   -2.3490 n         1 MOL     -0.811673
     55 O11        11.0040   -3.5290   -2.5920 o         1 MOL     -0.576279
     56 H20         9.4860   -1.3310   -1.7410 hn        1 MOL      0.343080
     57 H21         7.6270   -3.5580   -1.4520 h1        1 MOL      0.036615
     58 H22         9.0670   -2.4520   -3.7950 hc        1 MOL      0.098111
     59 H23         8.1510   -3.9590   -3.7660 hc        1 MOL      0.098111
     60 H24         9.0370   -5.9050   -2.4880 hn        1 MOL      0.360951
     61 H25        10.7280   -5.6040   -2.1080 hn        1 MOL      0.360951
     62 N7          5.4510   -2.7690   -2.2800 n         1 MOL     -0.404077
     63 C20         4.1290   -2.2240   -2.4530 c3        1 MOL     -0.333467
     64 C21         3.0830   -3.3350   -2.1860 c         1 MOL      0.564263
     65 O12         3.2180   -4.4970   -2.5470 o         1 MOL     -0.527156
     66 H26         5.5370   -3.6480   -1.7980 hn        1 MOL      0.270068
     67 H27         4.0360   -1.9340   -3.4990 h1        1 MOL      0.167866
     68 H28         4.0060   -1.3890   -1.7650 h1        1 MOL      0.167866
     69 N8          2.0970   -2.8900   -1.3570 n         1 MOL     -0.317924
     70 C22         1.1060   -3.8530   -0.9080 c3        1 MOL     -0.172295
     71 C23        -0.2070   -3.1130   -0.8670 c         1 MOL      0.440079
     72 O13        -0.3080   -1.9230   -0.4190 o         1 MOL     -0.580312
     73 C24         1.4100   -4.3760    0.5300 c3        1 MOL      0.370813
     74 C25         2.8320   -4.9170    0.6230 c3        1 MOL     -0.509659
     75 O14         1.3100   -3.3200    1.4920 oh        1 MOL     -0.631953
     76 H29         2.0320   -1.9110   -1.0960 hn        1 MOL      0.276998
     77 H30         1.0520   -4.6830   -1.6060 h1        1 MOL      0.114588
     78 H31         0.7400   -5.1630    0.8730 h1        1 MOL      0.037449
     79 H32         0.9510   -3.6930    2.3030 ho        1 MOL      0.405866
     80 H33         3.0560   -5.5900   -0.2030 hc        1 MOL      0.142783
     81 H34         3.4830   -4.0480    0.5420 hc        1 MOL      0.142783
     82 H35         2.8600   -5.4480    1.5740 hc        1 MOL      0.142783
     83 N9         -1.2700   -3.8190   -1.2960 n         1 MOL     -0.196253
     84 C26        -2.6270   -3.2590   -1.3820 c3        1 MOL     -0.222920
     85 C27        -3.3720   -3.6660   -0.1090 c         1 MOL      0.456042
     86 O15        -3.4270   -4.8380    0.1400 o         1 MOL     -0.502805
     87 C28        -3.3480   -3.7030   -2.6480 c3        1 MOL      0.313578
     88 C29        -4.8410   -3.3990   -2.9100 c3        1 MOL     -0.245543
     89 C30        -2.5860   -3.1250   -3.8340 c3        1 MOL     -0.417128
     90 C31        -5.3840   -1.9020   -3.0420 c3        1 MOL      0.048389
     91 H36        -1.1430   -4.8080   -1.4170 hn        1 MOL      0.235068
     92 H37        -2.5630   -2.1610   -1.3700 h1        1 MOL      0.243591
     93 H38        -3.2500   -4.7840   -2.7750 hc        1 MOL     -0.015111
     94 H39        -5.3620   -3.8750   -2.0860 hc        1 MOL      0.062608
     95 H40        -5.1440   -3.8820   -3.8410 hc        1 MOL      0.062608
     96 H41        -2.6370   -2.0310   -3.8130 hc        1 MOL      0.091479
     97 H42        -1.5320   -3.3740   -3.7360 hc        1 MOL      0.091479
     98 H43        -2.9770   -3.5080   -4.7820 hc        1 MOL      0.091479
     99 H44        -6.3930   -1.9220   -3.4610 hc        1 MOL     -0.022508
    100 H45        -5.3480   -1.3400   -2.1100 hc        1 MOL     -0.022508
    101 H46        -4.7890   -1.2730   -3.7070 hc        1 MOL     -0.022508
    102 N10        -3.9330   -2.6040    0.5560 n         1 MOL     -0.277144
    103 C32        -4.7530   -2.8030    1.7320 c3        1 MOL      0.308206
    104 C33        -6.1020   -1.9900    1.7730 c         1 MOL      0.193684
    105 O16        -7.0720   -2.3330    2.4440 o         1 MOL     -0.510953
    106 C34        -3.9740   -2.4310    2.9840 c3        1 MOL     -0.056645
    107 C35        -2.6220   -3.1270    3.0620 c         1 MOL      0.520921
    108 O17        -2.5890   -4.2520    3.6270 o         1 MOL     -0.648856
    109 O18        -1.6730   -2.6790    2.3980 o         1 MOL     -0.648856
    110 H47        -3.7530   -1.6450    0.2870 hn        1 MOL      0.009590
    111 H48        -4.9250   -3.8720    1.8380 h1        1 MOL      0.035295
    112 H49        -4.5460   -2.8280    3.8210 hc        1 MOL      0.006910
    113 H50        -3.7380   -1.3780    3.1340 hc        1 MOL      0.006910
    114 N11        -6.1590   -0.9750    0.9470 n         1 MOL     -0.308870
    115 C36        -7.4640   -0.2180    0.7630 c3        1 MOL      0.439042
    116 C37        -7.0930    1.1280    0.2370 c         1 MOL      0.058426
    117 O19        -7.1140    1.4200   -0.9650 o         1 MOL     -0.397533
    118 C38        -8.4870   -1.0190   -0.0710 c3        1 MOL     -0.353318
    119 C39        -9.8440   -0.3360   -0.3690 ca        1 MOL      0.190281
    120 C40       -10.6110    0.0390    0.7270 ca        1 MOL     -0.169200
    121 C41       -10.4720   -0.2540   -1.5830 ca        1 MOL     -0.169200
    122 C42       -11.9430    0.4940    0.5900 ca        1 MOL     -0.113160
    123 C43       -11.8080    0.1380   -1.7530 ca        1 MOL     -0.113160
    124 C44       -12.5340    0.4920   -0.6720 ca        1 MOL     -0.118088
    125 H51        -5.3740   -0.6490    0.4060 hn        1 MOL      0.347420
    126 H52        -7.9300   -0.0710    1.7340 h1        1 MOL     -0.047363
    127 H53        -8.6060   -2.0020    0.3980 hc        1 MOL      0.116702
    128 H54        -7.9090   -1.1120   -0.9790 hc        1 MOL      0.116702
    129 H55       -10.1200   -0.0060    1.6800 ha        1 MOL      0.109766
    130 H56        -9.9410   -0.6820   -2.4250 ha        1 MOL      0.109766
    131 H57       -12.5660    0.7940    1.4210 ha        1 MOL      0.099309
    132 H58       -12.2490    0.1770   -2.7450 ha        1 MOL      0.099309
    133 H59       -13.5360    0.8750   -0.7290 ha        1 MOL      0.095562
    134 N12        -6.4670    2.0000    1.1170 n         1 MOL      0.050589
    135 C45        -6.0150    3.3250    0.7100 c3        1 MOL      0.045239
    136 C46        -5.3990    3.5860   -0.6260 c         1 MOL      0.253916
    137 O20        -5.6330    4.6190   -1.1990 o         1 MOL     -0.471657
    138 C47        -5.0180    3.6100    1.8150 c3        1 MOL      0.109596
    139 C48        -5.5350    2.9970    3.0820 c3        1 MOL     -0.258622
    140 C49        -6.2510    1.7670    2.5550 c3        1 MOL      0.009243
    141 H60        -6.7780    4.0710    0.9410 h1        1 MOL      0.021761
    142 H61        -4.0800    3.1670    1.4920 hc        1 MOL      0.003788
    143 H62        -4.8710    4.6880    1.9610 hc        1 MOL      0.003788
    144 H63        -4.7460    2.6810    3.7680 hc        1 MOL      0.080965
    145 H64        -6.2420    3.7320    3.4820 hc        1 MOL      0.080965
    146 H65        -5.6550    0.8730    2.7300 h1        1 MOL      0.047985
    147 H66        -7.2450    1.8530    3.0070 h1        1 MOL      0.047985
    148 N13        -4.4530    2.7170   -1.0670 n         1 MOL     -0.082292
    149 C50        -3.7940    2.7650   -2.3670 c3        1 MOL     -0.311677
    150 C51        -4.6240    2.7090   -3.5900 c         1 MOL      0.602321
    151 O21        -4.3950    3.4160   -4.5630 o         1 MOL     -0.576531
    152 C52        -2.7910    1.6050   -2.4250 c3        1 MOL      0.124941
    153 C53        -1.8470    1.3750   -1.1900 c3        1 MOL     -0.574829
    154 C54        -2.5280    0.6970   -0.0240 c         1 MOL      0.686392
    155 O22        -1.8460    0.6110    1.0430 o         1 MOL     -0.651699
    156 O23        -3.7170    0.1740   -0.0990 o         1 MOL     -0.651699
    157 H67        -4.2770    1.8620   -0.5660 hn        1 MOL      0.226928
    158 H68        -3.3080    3.7420   -2.3530 h1        1 MOL      0.137893
    159 H69        -2.1590    1.7210   -3.3040 hc        1 MOL      0.020232
    160 H70        -3.2130    0.6640   -2.7720 hc        1 MOL      0.020232
    161 H71        -1.4280    2.2990   -0.7970 hc        1 MOL      0.186507
    162 H72        -1.0180    0.7100   -1.4730 hc        1 MOL      0.186507
    163 N14        -5.6630    1.8820   -3.4730 n         1 MOL     -0.222773
    164 C55        -6.7410    1.9510   -4.4670 c3        1 MOL     -0.214203
    165 H73        -6.9290    0.9540   -4.8660 h1        1 MOL      0.088991
    166 H74        -7.6470    2.3310   -3.9960 h1        1 MOL      0.088991
    167 H75        -6.4450    2.6160   -5.2780 h1        1 MOL      0.088991
    168 H76        -5.8190    1.4980   -2.5520 hn        1 MOL      0.222887
    169 Ca1         0.1460   -0.9350    1.8440 Ca        1 MOL      1.679263
    170 O24         2.2010   -0.2270    0.2310 oh        1 MOL     -0.845191
    171 H77         2.9890   -0.2940    0.7800 ho        1 MOL      0.411786
    172 H78         2.4200    0.4410   -0.4200 ho        1 MOL      0.411786
    173 O25        -0.0440   -1.1890    4.6390 oh        1 MOL     -0.845191
    174 H79        -0.2390   -2.0380    5.0360 ho        1 MOL      0.411786
    175 H80         0.1900   -0.6210    5.3840 ho        1 MOL      0.411786
    176 O26         0.7070    1.5970    2.8270 oh        1 MOL     -0.845191
    177 H81         1.4120    2.1650    2.5210 ho        1 MOL      0.411786
    178 H82         0.8810    1.5010    3.7680 ho        1 MOL      0.411786
@<TRIPOS>BOND
     1    1    2 1   
     2    1    4 1   
     3    1    5 1   
     4    1    6 1   
     5    2    3 2   
     6    2    7 1   
     7    7    8 1   
     8    7   15 1   
     9    8    9 1   
    10    8   11 1   
    11    8   16 1   
    12    9   10 2   
    13    9   19 1   
    14   11   12 1   
    15   11   17 1   
    16   11   18 1   
    17   12   13 1   
    18   12   14 1   
    19   19   20 1   
    20   19   24 1   
    21   20   21 1   
    22   20   23 1   
    23   20   25 1   
    24   21   22 2   
    25   21   29 1   
    26   23   26 1   
    27   23   27 1   
    28   23   28 1   
    29   29   30 1   
    30   29   37 1   
    31   30   31 1   
    32   30   33 1   
    33   30   38 1   
    34   31   32 2   
    35   31   41 1   
    36   33   34 1   
    37   33   39 1   
    38   33   40 1   
    39   34   35 1   
    40   34   36 1   
    41   41   42 1   
    42   41   45 1   
    43   42   43 1   
    44   42   46 1   
    45   42   47 1   
    46   43   44 2   
    47   43   48 1   
    48   48   49 1   
    49   48   56 1   
    50   49   50 1   
    51   49   52 1   
    52   49   57 1   
    53   50   51 2   
    54   50   62 1   
    55   52   53 1   
    56   52   58 1   
    57   52   59 1   
    58   53   54 1   
    59   53   55 2   
    60   54   60 1   
    61   54   61 1   
    62   62   63 1   
    63   62   66 1   
    64   63   64 1   
    65   63   67 1   
    66   63   68 1   
    67   64   65 2   
    68   64   69 1   
    69   69   70 1   
    70   69   76 1   
    71   70   71 1   
    72   70   73 1   
    73   70   77 1   
    74   71   72 2   
    75   71   83 1   
    76   73   74 1   
    77   73   75 1   
    78   73   78 1   
    79   74   80 1   
    80   74   81 1   
    81   74   82 1   
    82   75   79 1   
    83   83   84 1   
    84   83   91 1   
    85   84   85 1   
    86   84   87 1   
    87   84   92 1   
    88   85   86 2   
    89   85  102 1   
    90   87   88 1   
    91   87   89 1   
    92   87   93 1   
    93   88   90 1   
    94   88   94 1   
    95   88   95 1   
    96   89   96 1   
    97   89   97 1   
    98   89   98 1   
    99   90   99 1   
   100   90  100 1   
   101   90  101 1   
   102  102  103 1   
   103  102  110 1   
   104  103  104 1   
   105  103  106 1   
   106  103  111 1   
   107  104  105 2   
   108  104  114 1   
   109  106  107 1   
   110  106  112 1   
   111  106  113 1   
   112  107  108 1   
   113  107  109 1   
   114  114  115 1   
   115  114  125 1   
   116  115  116 1   
   117  115  118 1   
   118  115  126 1   
   119  116  117 2   
   120  116  134 1   
   121  118  119 1   
   122  118  127 1   
   123  118  128 1   
   124  119  120 ar  
   125  119  121 ar  
   126  120  122 ar  
   127  120  129 1   
   128  121  123 ar  
   129  121  130 1   
   130  122  124 ar  
   131  122  131 1   
   132  123  124 ar  
   133  123  132 1   
   134  124  133 1   
   135  134  135 1   
   136  134  140 1   
   137  135  136 1   
   138  135  138 1   
   139  135  141 1   
   140  136  137 2   
   141  136  148 1   
   142  138  139 1   
   143  138  142 1   
   144  138  143 1   
   145  139  140 1   
   146  139  144 1   
   147  139  145 1   
   148  140  146 1   
   149  140  147 1   
   150  148  149 1   
   151  148  157 1   
   152  149  150 1   
   153  149  152 1   
   154  149  158 1   
   155  150  151 2   
   156  150  163 1   
   157  152  153 1   
   158  152  159 1   
   159  152  160 1   
   160  153  154 1   
   161  153  161 1   
   162  153  162 1   
   163  154  155 1   
   164  154  156 1   
   165  163  164 1   
   166  163  168 1   
   167  164  165 1   
   168  164  166 1   
   169  164  167 1   
   170  170  171 1   
   171  170  172 1   
   172  173  174 1   
   173  173  175 1   
   174  176  177 1   
   175  176  178 1   
@<TRIPOS>SUBSTRUCTURE
     1 MOL         1 TEMP              0 ****  ****    0 ROOT
