@<TRIPOS>MOLECULE
MOL
  188   182     1     0     0
SMALL
resp


@<TRIPOS>ATOM
      1 C1          4.7100   -1.1420    5.6630 c3        1 MOL     -0.504128
      2 C2          3.7340   -0.8430    4.5770 c         1 MOL      0.809838
      3 O1          2.6330   -0.3870    4.7720 o         1 MOL     -0.618257
      4 H1          4.5930   -2.1770    5.9800 hc        1 MOL      0.127451
      5 H2          5.7240   -0.9890    5.2930 hc        1 MOL      0.127451
      6 H3          4.5270   -0.4790    6.5080 hc        1 MOL      0.127451
      7 N1          4.2020   -1.0500    3.3360 n         1 MOL     -0.617330
      8 C3          3.4430   -0.9410    2.1180 c3        1 MOL      0.126144
      9 C4          3.0150   -2.2420    1.4150 c         1 MOL      0.364141
     10 O2          2.0190   -2.3320    0.6870 o         1 MOL     -0.558183
     11 C5          4.1390    0.0370    1.1520 c3        1 MOL     -0.081469
     12 C6          5.6430   -0.2030    0.9200 c         1 MOL      0.560191
     13 O3          5.9820   -1.0680    0.0930 o         1 MOL     -0.623392
     14 O4          6.4550    0.6060    1.3750 o         1 MOL     -0.623392
     15 H4          5.1820   -1.2730    3.2120 hn        1 MOL      0.320946
     16 H5          2.5020   -0.4410    2.3410 h1        1 MOL      0.146657
     17 H6          4.0020    1.0240    1.5970 hc        1 MOL      0.014180
     18 H7          3.6840    0.0810    0.1640 hc        1 MOL      0.014180
     19 N2          3.7950   -3.2760    1.5560 n         1 MOL     -0.385647
     20 C7          3.4230   -4.6610    1.1050 c3        1 MOL      0.380209
     21 C8          3.8210   -4.8240   -0.4080 c         1 MOL      0.169222
     22 O5          4.7180   -5.6450   -0.8190 o         1 MOL     -0.510123
     23 C9          4.0270   -5.6510    2.0770 c3        1 MOL     -0.164188
     24 C10         3.3300   -5.5400    3.4060 c3        1 MOL      0.000565
     25 C11         4.2070   -6.2360    4.4740 c3        1 MOL     -0.063993
     26 C12         4.3300   -7.7480    4.2270 c3        1 MOL      0.150251
     27 N3          5.2280   -8.3930    5.1220 n4        1 MOL     -0.463887
     28 H8          4.7310   -3.1590    1.9360 hn        1 MOL      0.278929
     29 H9          2.3440   -4.7730    1.1770 h1        1 MOL     -0.000113
     30 H10         5.0710   -5.3700    2.1720 hc        1 MOL      0.046997
     31 H11         3.9740   -6.5980    1.5360 hc        1 MOL      0.046997
     32 H12         2.3780   -6.0450    3.2350 hc        1 MOL      0.015651
     33 H13         3.2590   -4.4850    3.6830 hc        1 MOL      0.015651
     34 H14         3.7970   -6.1260    5.4800 hc        1 MOL      0.027823
     35 H15         5.1910   -5.7610    4.4660 hc        1 MOL      0.027823
     36 H16         4.7040   -7.9680    3.2320 hx        1 MOL      0.060529
     37 H17         3.3530   -8.2060    4.3500 hx        1 MOL      0.060529
     38 H18         6.1770   -8.4760    4.7810 hn        1 MOL      0.352132
     39 H19         5.1640   -7.8380    5.9640 hn        1 MOL      0.352132
     40 H20         4.8660   -9.3310    5.2520 hn        1 MOL      0.352132
     41 N4          3.2970   -3.8600   -1.1800 n         1 MOL     -0.029743
     42 C13         3.4010   -3.6870   -2.6630 c3        1 MOL      0.090196
     43 C14         3.8230   -2.3620   -3.2250 c         1 MOL      0.421302
     44 O6          3.7380   -2.0860   -4.4210 o         1 MOL     -0.505943
     45 C15         2.1450   -4.3310   -3.3480 c3        1 MOL     -0.385754
     46 C16         0.8510   -3.5640   -3.1420 c         1 MOL      0.746589
     47 O7          0.8410   -2.6020   -2.4110 o         1 MOL     -0.686704
     48 O8         -0.2130   -3.9040   -3.7300 o         1 MOL     -0.686704
     49 H21         2.7950   -3.1150   -0.7190 hn        1 MOL      0.145167
     50 H22         4.2070   -4.3600   -2.9700 h1        1 MOL      0.101067
     51 H23         1.9650   -5.3220   -2.9140 hc        1 MOL      0.090891
     52 H24         2.4120   -4.2630   -4.4040 hc        1 MOL      0.090891
     53 N5          4.3590   -1.5130   -2.3610 n         1 MOL     -0.348144
     54 C17         5.0210   -0.2310   -2.6970 c3        1 MOL      0.113902
     55 C18         6.4750   -0.2660   -3.2550 c         1 MOL      0.589556
     56 O9          7.0970   -1.3130   -3.4720 o         1 MOL     -0.517839
     57 H25         4.6000   -1.8460   -1.4380 hn        1 MOL      0.167296
     58 H26         4.9240    0.3580   -1.7840 h1        1 MOL      0.027840
     59 H27         4.3830    0.2840   -3.4140 h1        1 MOL      0.027840
     60 N6          7.0900    0.9130   -3.5460 n         1 MOL     -0.607000
     61 C19         6.5200    2.2550   -3.3160 c3        1 MOL      0.150749
     62 C20         6.6800    2.7060   -1.8230 c         1 MOL      0.517534
     63 O10         7.7700    2.6840   -1.2950 o         1 MOL     -0.494828
     64 C21         7.2650    3.1360   -4.3030 c3        1 MOL     -0.190506
     65 C22         6.8160    4.5930   -4.3010 c         1 MOL      0.615592
     66 N7          6.1660    5.0140   -5.3340 n         1 MOL     -0.750129
     67 O11         7.1050    5.3340   -3.3070 o         1 MOL     -0.562653
     68 H28         8.0530    0.8180   -3.8270 hn        1 MOL      0.340345
     69 H29         5.4650    2.2460   -3.6070 h1        1 MOL      0.043637
     70 H30         7.1300    2.7040   -5.2990 hc        1 MOL      0.072319
     71 H31         8.3400    3.1830   -4.1560 hc        1 MOL      0.072319
     72 H32         5.8760    4.4660   -6.1210 hn        1 MOL      0.357039
     73 H33         5.9570    6.0020   -5.3160 hn        1 MOL      0.357039
     74 N8          5.6250    3.0410   -1.0660 n         1 MOL     -0.429964
     75 C23         4.1780    3.1150   -1.3070 c3        1 MOL      0.073582
     76 C24         3.4530    3.7540   -0.0530 c         1 MOL      0.603512
     77 O12         4.0440    4.3410    0.8250 o         1 MOL     -0.482439
     78 H34         5.9290    3.1920   -0.1160 hn        1 MOL      0.288660
     79 H35         3.7870    2.1470   -1.6160 h1        1 MOL      0.003335
     80 H36         3.9640    3.7470   -2.1640 h1        1 MOL      0.003335
     81 N9          2.1120    3.6380   -0.1410 n         1 MOL     -0.510252
     82 C25         1.1670    4.2820    0.8220 c3        1 MOL      0.016370
     83 C26        -0.2030    3.5950    0.7120 c         1 MOL      0.730173
     84 O13        -0.3730    2.7650   -0.1420 o         1 MOL     -0.530782
     85 C27         1.0300    5.8440    0.4960 c3        1 MOL     -0.247522
     86 C28         0.3540    6.5870    1.5840 ca        1 MOL     -0.043304
     87 C29        -1.0490    6.9570    1.5690 ca        1 MOL     -0.028216
     88 C30         1.0350    6.7070    2.7860 ca        1 MOL     -0.028216
     89 C31        -1.6010    7.5120    2.6760 ca        1 MOL     -0.331900
     90 C32         0.5110    7.2030    3.9740 ca        1 MOL     -0.331900
     91 C33        -0.7840    7.7320    3.8690 ca        1 MOL      0.375538
     92 O14        -1.2980    8.4960    4.8860 oh        1 MOL     -0.492296
     93 H37         1.6980    3.0290   -0.8340 hn        1 MOL      0.267060
     94 H38         1.4620    4.1790    1.8630 h1        1 MOL      0.060604
     95 H39         0.3770    5.9290   -0.3740 hc        1 MOL      0.116389
     96 H40         1.9250    6.3420    0.1430 hc        1 MOL      0.116389
     97 H41        -1.5670    6.7620    0.6480 ha        1 MOL      0.114948
     98 H42         2.0920    6.5010    2.7720 ha        1 MOL      0.114948
     99 H43        -2.6410    7.8310    2.6550 ha        1 MOL      0.165162
    100 H44         1.0960    7.2520    4.8800 ha        1 MOL      0.165162
    101 H45        -0.6960    8.4500    5.6310 ho        1 MOL      0.368263
    102 N10        -1.1280    3.8310    1.6460 n         1 MOL     -0.592266
    103 C34        -2.3770    3.0400    1.7410 c3        1 MOL     -0.052878
    104 C35        -3.4630    3.4440    0.6520 c         1 MOL      0.664111
    105 O15        -3.3270    4.5320    0.0390 o         1 MOL     -0.531670
    106 C36        -3.0210    3.0010    3.1340 c3        1 MOL     -0.037252
    107 C37        -2.1630    2.1260    4.0120 c3        1 MOL     -0.222554
    108 C38        -3.1610    4.4050    3.7740 c3        1 MOL     -0.089009
    109 C39        -2.8680    1.5690    5.2160 c3        1 MOL     -0.008910
    110 H46        -0.9500    4.6000    2.2840 hn        1 MOL      0.311877
    111 H47        -2.1400    2.0010    1.4870 h1        1 MOL      0.148821
    112 H48        -4.0330    2.6110    3.0230 hc        1 MOL      0.068213
    113 H49        -1.3650    2.7360    4.4390 hc        1 MOL      0.089907
    114 H50        -1.7670    1.1980    3.5940 hc        1 MOL      0.089907
    115 H51        -3.7140    4.4830    4.7110 hc        1 MOL      0.046105
    116 H52        -2.1510    4.8220    3.8240 hc        1 MOL      0.046105
    117 H53        -3.7490    4.9940    3.0730 hc        1 MOL      0.046105
    118 H54        -3.3990    2.2680    5.8690 hc        1 MOL      0.011299
    119 H55        -3.6560    0.8740    4.9190 hc        1 MOL      0.011299
    120 H56        -2.1900    1.0620    5.9010 hc        1 MOL      0.011299
    121 N11        -4.4470    2.6190    0.3730 n         1 MOL     -0.647639
    122 C40        -5.3930    2.6990   -0.7260 c3        1 MOL      0.155617
    123 C41        -5.2180    1.4750   -1.6770 c         1 MOL      0.562187
    124 O16        -4.7880    0.3890   -1.2240 o         1 MOL     -0.396416
    125 C42        -6.7960    2.7610   -0.2350 c3        1 MOL      0.224605
    126 O17        -7.6060    3.0630   -1.3040 oh        1 MOL     -0.590604
    127 H57        -4.5940    1.9060    1.0690 hn        1 MOL      0.249600
    128 H58        -5.2470    3.5600   -1.3700 h1        1 MOL      0.030836
    129 H59        -6.9790    3.4890    0.5540 h1        1 MOL      0.017204
    130 H60        -7.0920    1.7580    0.0750 h1        1 MOL      0.017204
    131 H61        -7.6950    4.0050   -1.4220 ho        1 MOL      0.404518
    132 N12        -5.4840    1.7610   -2.9870 n         1 MOL     -0.533894
    133 C43        -5.7070    0.6900   -4.0010 c3        1 MOL      0.241286
    134 C44        -6.7970   -0.2640   -3.4890 c         1 MOL      0.278177
    135 O18        -6.8890   -1.3440   -3.9680 o         1 MOL     -0.409206
    136 C45        -4.3320    0.0770   -4.3230 c3        1 MOL     -0.344706
    137 H62        -5.6420    2.7210   -3.2670 hn        1 MOL      0.312736
    138 H63        -6.0690    1.1220   -4.9360 h1        1 MOL      0.076393
    139 H64        -3.8230    0.8230   -4.9390 hc        1 MOL      0.114480
    140 H65        -3.7590   -0.1730   -3.4290 hc        1 MOL      0.114480
    141 H66        -4.4050   -0.8800   -4.8440 hc        1 MOL      0.114480
    142 N13        -7.7220    0.1590   -2.5840 n         1 MOL     -0.252067
    143 C46        -8.8910   -0.6400   -2.0470 c3        1 MOL      0.299618
    144 C47        -8.4840   -1.9010   -1.3250 c         1 MOL      0.257721
    145 O19        -9.2020   -2.8530   -1.1960 o         1 MOL     -0.456241
    146 C48        -9.7800   -0.9930   -3.2320 c3        1 MOL     -0.353234
    147 H67        -7.7180    1.1210   -2.2670 hn        1 MOL      0.092805
    148 H68        -9.4100   -0.0630   -1.2810 h1        1 MOL      0.025811
    149 H69       -10.0850   -0.0820   -3.7450 hc        1 MOL      0.097781
    150 H70        -9.2770   -1.6960   -3.8970 hc        1 MOL      0.097781
    151 H71       -10.6940   -1.4300   -2.8290 hc        1 MOL      0.097781
    152 N14        -7.2720   -1.8490   -0.8350 n         1 MOL     -0.146313
    153 C49        -6.5620   -2.9810   -0.2300 c3        1 MOL     -0.182687
    154 C50        -7.3000   -3.6880    0.9870 c         1 MOL      0.402819
    155 O20        -7.4370   -4.8960    1.0080 o         1 MOL     -0.498139
    156 C51        -5.1150   -2.5260    0.0680 c3        1 MOL      0.514624
    157 C52        -4.3570   -3.7610    0.4660 c3        1 MOL     -0.317572
    158 C53        -2.8980   -3.4260    0.2380 c         1 MOL      0.790132
    159 O21        -2.3960   -3.4370   -0.9490 o         1 MOL     -0.773588
    160 O22        -2.1950   -3.0190    1.1830 o         1 MOL     -0.773588
    161 H72        -6.7370   -1.0220   -1.0390 hn        1 MOL      0.071701
    162 H73        -6.4500   -3.6430   -1.0850 h1        1 MOL      0.184996
    163 H74        -5.0570   -1.8000    0.8780 hc        1 MOL     -0.137919
    164 H75        -4.6390   -2.0960   -0.8150 hc        1 MOL     -0.137919
    165 H76        -4.6990   -4.5450   -0.2090 hc        1 MOL      0.051042
    166 H77        -4.6180   -4.1160    1.4670 hc        1 MOL      0.051042
    167 N15        -7.5990   -2.9430    2.0090 n         1 MOL     -0.154462
    168 C54        -8.1800   -3.4670    3.2420 c3        1 MOL     -0.327631
    169 H78        -7.4690   -3.3460    4.0590 h1        1 MOL      0.130080
    170 H79        -9.0950   -2.9220    3.4730 h1        1 MOL      0.130080
    171 H80        -8.4090   -4.5260    3.1150 h1        1 MOL      0.130080
    172 H81        -7.4450   -1.9430    1.9500 hn        1 MOL      0.189068
    173 Ca1        -0.3810   -1.9360   -0.2360 Ca        1 MOL      1.825974
    174 O23         1.0770    0.3040   -0.6690 oh        1 MOL     -0.902043
    175 H82         0.5340    1.0060   -0.2890 ho        1 MOL      0.421689
    176 H83         1.3830    0.6710   -1.5070 ho        1 MOL      0.421689
    177 O24        -1.1500   -0.9730   -2.7860 oh        1 MOL     -0.902043
    178 H84        -0.3950   -1.5230   -3.0110 ho        1 MOL      0.421689
    179 H85        -1.7680   -1.1130   -3.5040 ho        1 MOL      0.421689
    180 O25         0.2800   -4.6100   -0.1010 oh        1 MOL     -0.902043
    181 H86         1.0100   -5.2340   -0.1220 ho        1 MOL      0.421689
    182 H87        -0.4380   -5.0670   -0.5430 ho        1 MOL      0.421689
    183 O26        -2.5290   -0.2630    0.1720 oh        1 MOL     -0.902043
    184 H88        -3.3290   -0.0570   -0.2920 ho        1 MOL      0.421689
    185 H89        -2.7920   -0.3790    1.0820 ho        1 MOL      0.421689
    186 O27        -0.3810   -0.5780    2.1350 oh        1 MOL     -0.902043
    187 H90        -0.0930    0.2150    2.5860 ho        1 MOL      0.421689
    188 H91        -0.6560   -1.1610    2.8370 ho        1 MOL      0.421689
@<TRIPOS>BOND
     1    1    2 1   
     2    1    4 1   
     3    1    5 1   
     4    1    6 1   
     5    2    3 2   
     6    2    7 1   
     7    7    8 1   
     8    7   15 1   
     9    8    9 1   
    10    8   11 1   
    11    8   16 1   
    12    9   10 2   
    13    9   19 1   
    14   11   12 1   
    15   11   17 1   
    16   11   18 1   
    17   12   13 1   
    18   12   14 1   
    19   19   20 1   
    20   19   28 1   
    21   20   21 1   
    22   20   23 1   
    23   20   29 1   
    24   21   22 2   
    25   21   41 1   
    26   23   24 1   
    27   23   30 1   
    28   23   31 1   
    29   24   25 1   
    30   24   32 1   
    31   24   33 1   
    32   25   26 1   
    33   25   34 1   
    34   25   35 1   
    35   26   27 1   
    36   26   36 1   
    37   26   37 1   
    38   27   38 1   
    39   27   39 1   
    40   27   40 1   
    41   41   42 1   
    42   41   49 1   
    43   42   43 1   
    44   42   45 1   
    45   42   50 1   
    46   43   44 2   
    47   43   53 1   
    48   45   46 1   
    49   45   51 1   
    50   45   52 1   
    51   46   47 1   
    52   46   48 1   
    53   53   54 1   
    54   53   57 1   
    55   54   55 1   
    56   54   58 1   
    57   54   59 1   
    58   55   56 2   
    59   55   60 1   
    60   60   61 1   
    61   60   68 1   
    62   61   62 1   
    63   61   64 1   
    64   61   69 1   
    65   62   63 2   
    66   62   74 1   
    67   64   65 1   
    68   64   70 1   
    69   64   71 1   
    70   65   66 1   
    71   65   67 2   
    72   66   72 1   
    73   66   73 1   
    74   74   75 1   
    75   74   78 1   
    76   75   76 1   
    77   75   79 1   
    78   75   80 1   
    79   76   77 2   
    80   76   81 1   
    81   81   82 1   
    82   81   93 1   
    83   82   83 1   
    84   82   85 1   
    85   82   94 1   
    86   83   84 2   
    87   83  102 1   
    88   85   86 1   
    89   85   95 1   
    90   85   96 1   
    91   86   87 ar  
    92   86   88 ar  
    93   87   89 ar  
    94   87   97 1   
    95   88   90 ar  
    96   88   98 1   
    97   89   91 ar  
    98   89   99 1   
    99   90   91 ar  
   100   90  100 1   
   101   91   92 1   
   102   92  101 1   
   103  102  103 1   
   104  102  110 1   
   105  103  104 1   
   106  103  106 1   
   107  103  111 1   
   108  104  105 2   
   109  104  121 1   
   110  106  107 1   
   111  106  108 1   
   112  106  112 1   
   113  107  109 1   
   114  107  113 1   
   115  107  114 1   
   116  108  115 1   
   117  108  116 1   
   118  108  117 1   
   119  109  118 1   
   120  109  119 1   
   121  109  120 1   
   122  121  122 1   
   123  121  127 1   
   124  122  123 1   
   125  122  125 1   
   126  122  128 1   
   127  123  124 2   
   128  123  132 1   
   129  125  126 1   
   130  125  129 1   
   131  125  130 1   
   132  126  131 1   
   133  132  133 1   
   134  132  137 1   
   135  133  134 1   
   136  133  136 1   
   137  133  138 1   
   138  134  135 2   
   139  134  142 1   
   140  136  139 1   
   141  136  140 1   
   142  136  141 1   
   143  142  143 1   
   144  142  147 1   
   145  143  144 1   
   146  143  146 1   
   147  143  148 1   
   148  144  145 2   
   149  144  152 1   
   150  146  149 1   
   151  146  150 1   
   152  146  151 1   
   153  152  153 1   
   154  152  161 1   
   155  153  154 1   
   156  153  156 1   
   157  153  162 1   
   158  154  155 2   
   159  154  167 1   
   160  156  157 1   
   161  156  163 1   
   162  156  164 1   
   163  157  158 1   
   164  157  165 1   
   165  157  166 1   
   166  158  159 1   
   167  158  160 1   
   168  167  168 1   
   169  167  172 1   
   170  168  169 1   
   171  168  170 1   
   172  168  171 1   
   173  174  175 1   
   174  174  176 1   
   175  177  178 1   
   176  177  179 1   
   177  180  181 1   
   178  180  182 1   
   179  183  184 1   
   180  183  185 1   
   181  186  187 1   
   182  186  188 1   
@<TRIPOS>SUBSTRUCTURE
     1 MOL         1 TEMP              0 ****  ****    0 ROOT
