@<TRIPOS>MOLECULE
MOL
  178   175     1     0     0
SMALL
resp


@<TRIPOS>ATOM
      1 C1          2.3630   -1.3050    4.9240 c3        1 MOL     -0.392926
      2 C2          3.1870   -0.0530    4.4040 c         1 MOL      0.579461
      3 O1          2.6290    0.8710    3.7390 o         1 MOL     -0.596032
      4 H1          2.9300   -1.8150    5.7020 hc        1 MOL      0.101346
      5 H2          1.4090   -0.9690    5.3320 hc        1 MOL      0.101346
      6 H3          2.1840   -1.9910    4.0970 hc        1 MOL      0.101346
      7 N1          4.4510    0.0410    4.6590 n         1 MOL     -0.367675
      8 C3          5.3380    1.0420    4.1170 c3        1 MOL      0.111009
      9 C4          5.9120    0.7390    2.6590 c         1 MOL      0.321660
     10 O2          6.5590    1.5710    1.9210 o         1 MOL     -0.530746
     11 C5          6.5410    1.1770    4.9920 c3        1 MOL     -0.323122
     12 C6          7.5480   -0.0150    4.9640 c         1 MOL      0.755266
     13 O3          8.7750    0.3180    4.9890 o         1 MOL     -0.725294
     14 O4          7.1030   -1.1550    5.0440 o         1 MOL     -0.725294
     15 H4          4.8650   -0.7350    5.1500 hn        1 MOL      0.254135
     16 H5          4.8060    1.9830    4.1450 h1        1 MOL      0.068672
     17 H6          6.0430    1.2430    5.9560 hc        1 MOL      0.062609
     18 H7          7.0830    2.0670    4.6950 hc        1 MOL      0.062609
     19 N2          5.7370   -0.5320    2.2800 n         1 MOL     -0.162944
     20 C7          6.0500   -1.2050    0.9920 c3        1 MOL      0.232904
     21 C8          5.4890   -0.5150   -0.3200 c         1 MOL      0.439304
     22 O5          4.7260   -1.1470   -1.0160 o         1 MOL     -0.598047
     23 C9          7.4750   -1.5360    0.8210 c3        1 MOL     -0.372649
     24 H8          5.1720   -1.1120    2.8860 hn        1 MOL      0.195461
     25 H9          5.5210   -2.1520    1.0130 h1        1 MOL      0.039843
     26 H10         8.1170   -0.6520    0.8980 hc        1 MOL      0.114751
     27 H11         7.8190   -2.1400    1.6460 hc        1 MOL      0.114751
     28 H12         7.7250   -1.9410   -0.1660 hc        1 MOL      0.114751
     29 N3          5.9420    0.6450   -0.6750 n         1 MOL     -0.402553
     30 C10         5.7130    1.3530   -1.9490 c3        1 MOL      0.195412
     31 C11         5.2960    2.8510   -1.7730 c         1 MOL      0.527297
     32 O6          5.5190    3.7120   -2.6440 o         1 MOL     -0.546051
     33 C12         6.9870    1.1540   -2.8350 c3        1 MOL     -0.340254
     34 C13         7.3470   -0.3450   -3.1010 c         1 MOL      0.976502
     35 O7          6.6970   -0.8880   -4.0400 o         1 MOL     -0.785333
     36 O8          8.2750   -0.9400   -2.5270 o         1 MOL     -0.785333
     37 H13         6.5330    1.1280   -0.0200 hn        1 MOL      0.252716
     38 H14         4.8940    0.9020   -2.5040 h1        1 MOL     -0.014987
     39 H15         7.8590    1.6280   -2.3750 hc        1 MOL      0.038829
     40 H16         6.8290    1.5990   -3.8180 hc        1 MOL      0.038829
     41 N4          4.7680    3.2200   -0.5940 n         1 MOL     -0.267444
     42 C14         4.2250    4.5280   -0.2820 c3        1 MOL     -0.154148
     43 C15         2.9500    4.8850   -1.0500 c         1 MOL      0.539959
     44 O9          2.7140    6.0320   -1.3890 o         1 MOL     -0.530061
     45 H17         4.7780    2.4920    0.0960 hn        1 MOL      0.221294
     46 H18         4.9200    5.3170   -0.5580 h1        1 MOL      0.096126
     47 H19         4.1030    4.6280    0.7960 h1        1 MOL      0.096126
     48 N5          2.1960    3.8050   -1.3540 n         1 MOL     -0.230639
     49 C16         0.9640    3.7210   -2.2020 c3        1 MOL     -0.212618
     50 C17        -0.1390    4.7160   -1.6660 c         1 MOL      0.384084
     51 O10        -0.3390    4.8170   -0.4010 o         1 MOL     -0.469704
     52 C18         0.4240    2.3150   -2.1780 c3        1 MOL     -0.130480
     53 C19         1.3920    1.2880   -2.8000 c         1 MOL      0.398709
     54 N6          1.1600    0.9840   -4.0410 n         1 MOL     -0.569883
     55 O11         2.1950    0.7070   -2.1240 o         1 MOL     -0.382606
     56 H20         2.5380    2.9510   -0.9490 hn        1 MOL      0.208179
     57 H21         1.2290    3.8820   -3.2500 h1        1 MOL      0.103352
     58 H22        -0.5440    2.1010   -2.6370 hc        1 MOL      0.132711
     59 H23         0.2670    2.0210   -1.1450 hc        1 MOL      0.132711
     60 H24         0.4180    1.4650   -4.5290 hn        1 MOL      0.289264
     61 H25         1.7850    0.3170   -4.4680 hn        1 MOL      0.289264
     62 N7         -0.9050    5.3420   -2.5100 n         1 MOL     -0.206180
     63 C20        -1.9140    6.3670   -2.2230 c3        1 MOL     -0.282933
     64 C21        -3.3040    5.8530   -1.8120 c         1 MOL      0.596581
     65 O12        -3.8560    5.0330   -2.4810 o         1 MOL     -0.492955
     66 H26        -0.7140    5.0340   -3.4530 hn        1 MOL      0.249529
     67 H27        -1.9560    6.9830   -3.1220 h1        1 MOL      0.126901
     68 H28        -1.5360    6.9860   -1.4050 h1        1 MOL      0.126901
     69 N8         -3.7190    6.3810   -0.6320 n         1 MOL     -0.377637
     70 C22        -5.0830    6.1860   -0.1440 c3        1 MOL     -0.462123
     71 C23        -5.3300    4.8200    0.4880 c         1 MOL      0.463894
     72 O13        -6.5220    4.5090    0.8230 o         1 MOL     -0.566621
     73 C24        -5.5060    7.3550    0.8260 c3        1 MOL      0.661968
     74 C25        -4.9220    7.3700    2.2250 c3        1 MOL     -0.518851
     75 O14        -5.3650    8.5970    0.2980 oh        1 MOL     -0.640987
     76 H29        -3.1790    7.1620   -0.3180 hn        1 MOL      0.254473
     77 H30        -5.7440    6.2080   -1.0070 h1        1 MOL      0.187796
     78 H31        -6.5780    7.1930    0.9230 h1        1 MOL      0.005336
     79 H32        -4.4090    8.6950    0.2140 ho        1 MOL      0.371413
     80 H33        -5.3810    8.2450    2.6780 hc        1 MOL      0.117580
     81 H34        -5.3050    6.5760    2.8620 hc        1 MOL      0.117580
     82 H35        -3.8370    7.2880    2.1660 hc        1 MOL      0.117580
     83 N9         -4.2430    4.1470    0.7400 n         1 MOL     -0.016359
     84 C26        -4.2790    2.6760    1.0980 c3        1 MOL     -0.030964
     85 C27        -3.4030    1.8670    0.1640 c         1 MOL      0.355293
     86 O15        -2.7140    2.3050   -0.7520 o         1 MOL     -0.465141
     87 C28        -3.8520    2.5820    2.6570 c3        1 MOL      0.134592
     88 C29        -2.4710    3.2750    3.0300 c3        1 MOL     -0.195601
     89 C30        -4.8930    3.1570    3.6080 c3        1 MOL     -0.258101
     90 C31        -1.1430    2.8050    2.3410 c3        1 MOL      0.005409
     91 H36        -3.3440    4.5450    0.5020 hn        1 MOL      0.195753
     92 H37        -5.2810    2.2440    1.0470 h1        1 MOL      0.043656
     93 H38        -3.7350    1.5220    2.8780 hc        1 MOL     -0.008433
     94 H39        -2.2540    3.1460    4.0980 hc        1 MOL      0.047188
     95 H40        -2.6420    4.3300    2.8420 hc        1 MOL      0.047188
     96 H41        -5.7390    2.4710    3.7090 hc        1 MOL      0.062241
     97 H42        -4.4820    3.3110    4.6110 hc        1 MOL      0.062241
     98 H43        -5.2960    4.0640    3.1680 hc        1 MOL      0.062241
     99 H44        -1.0070    1.7420    2.5490 hc        1 MOL      0.028544
    100 H45        -1.1580    2.9580    1.2630 hc        1 MOL      0.028544
    101 H46        -0.3250    3.4370    2.6750 hc        1 MOL      0.028544
    102 N10        -3.2570    0.5840    0.4670 n         1 MOL     -0.318643
    103 C32        -2.3110   -0.3230   -0.2260 c3        1 MOL     -0.050385
    104 C33        -2.9890   -1.6710   -0.4910 c         1 MOL      0.509391
    105 O16        -2.4510   -2.7150   -0.1350 o         1 MOL     -0.507704
    106 C34        -0.9990   -0.4580    0.5400 c3        1 MOL     -0.193527
    107 C35         0.1430   -1.0170   -0.2470 c         1 MOL      0.705169
    108 O17         1.2320   -1.0750    0.2780 o         1 MOL     -0.762685
    109 O18         0.1100   -1.2260   -1.4840 o         1 MOL     -0.762685
    110 H47        -3.8800    0.1790    1.1490 hn        1 MOL      0.243363
    111 H48        -2.1000    0.1390   -1.1870 h1        1 MOL      0.067691
    112 H49        -1.2000   -1.1490    1.3670 hc        1 MOL      0.114753
    113 H50        -0.6970    0.5650    0.7530 hc        1 MOL      0.114753
    114 N11        -4.2380   -1.6660   -1.0120 n         1 MOL     -0.363501
    115 C36        -4.9840   -2.8560   -1.5340 c3        1 MOL      0.075871
    116 C37        -4.8570   -4.1430   -0.6760 c         1 MOL      0.457709
    117 O19        -5.0350   -4.1730    0.5550 o         1 MOL     -0.497059
    118 C38        -6.5040   -2.5570   -1.8300 c3        1 MOL     -0.110126
    119 C39        -7.2060   -1.6900   -0.7620 ca        1 MOL      0.084674
    120 C40        -7.4620   -2.2010    0.5460 ca        1 MOL     -0.200160
    121 C41        -7.2980   -0.3790   -1.0420 ca        1 MOL     -0.200160
    122 C42        -7.6590   -1.3040    1.5980 ca        1 MOL     -0.073784
    123 C43        -7.4770    0.4910    0.0970 ca        1 MOL     -0.073784
    124 C44        -7.6540    0.0640    1.4220 ca        1 MOL     -0.138924
    125 H51        -4.6100   -0.7900   -1.3550 hn        1 MOL      0.256377
    126 H52        -4.5560   -3.0320   -2.5280 h1        1 MOL      0.043916
    127 H53        -6.9740   -3.4830   -2.1470 hc        1 MOL      0.044486
    128 H54        -6.5200   -1.9990   -2.7750 hc        1 MOL      0.044486
    129 H55        -7.4090   -3.2530    0.7520 ha        1 MOL      0.140268
    130 H56        -7.1090   -0.0620   -2.0570 ha        1 MOL      0.140268
    131 H57        -7.8060   -1.6360    2.6140 ha        1 MOL      0.101625
    132 H58        -7.4150    1.5570   -0.0900 ha        1 MOL      0.101625
    133 H59        -7.7320    0.7770    2.2270 ha        1 MOL      0.129665
    134 N12        -4.4630   -5.2930   -1.2970 n         1 MOL     -0.180564
    135 C45        -4.2160   -6.5310   -0.6000 c3        1 MOL     -0.187519
    136 C46        -3.1190   -6.6200    0.4540 c         1 MOL      0.343839
    137 O20        -3.1900   -7.5610    1.2920 o         1 MOL     -0.524538
    138 C47        -3.8560   -7.5390   -1.6850 c3        1 MOL      0.020057
    139 C48        -3.1680   -6.7320   -2.8160 c3        1 MOL     -0.001423
    140 C49        -3.8950   -5.3960   -2.6640 c3        1 MOL      0.013243
    141 H60        -5.2000   -6.8460   -0.2420 h1        1 MOL      0.128094
    142 H61        -3.2820   -8.4030   -1.3570 hc        1 MOL      0.035110
    143 H62        -4.6870   -7.9720   -2.2470 hc        1 MOL      0.035110
    144 H63        -2.1200   -6.5640   -2.5490 hc        1 MOL      0.010587
    145 H64        -3.3850   -7.2080   -3.7650 hc        1 MOL      0.010587
    146 H65        -3.2410   -4.5510   -2.8700 h1        1 MOL      0.032442
    147 H66        -4.6280   -5.3500   -3.4710 h1        1 MOL      0.032442
    148 N13        -2.2120   -5.6180    0.6250 n         1 MOL      0.064684
    149 C50        -1.2070   -5.4970    1.6910 c3        1 MOL     -0.508814
    150 C51        -1.7740   -4.8550    2.9120 c         1 MOL      0.614323
    151 O21        -1.1970   -5.1170    4.0140 o         1 MOL     -0.562931
    152 C52         0.0890   -4.8050    1.1630 c3        1 MOL      0.204482
    153 C53         0.9710   -5.6120    0.1510 c3        1 MOL     -0.462299
    154 C54         1.7610   -4.6460   -0.8120 c         1 MOL      0.811516
    155 O22         2.6440   -3.8670   -0.4090 o         1 MOL     -0.750724
    156 O23         1.3890   -4.6160   -1.9890 o         1 MOL     -0.750724
    157 H67        -2.2550   -4.8900   -0.0810 hn        1 MOL      0.185165
    158 H68        -0.9410   -6.5170    1.9590 h1        1 MOL      0.187144
    159 H69         0.6180   -4.4440    2.0460 hc        1 MOL      0.058451
    160 H70        -0.2230   -3.8480    0.7310 hc        1 MOL      0.058451
    161 H71         0.1750   -6.1550   -0.3690 hc        1 MOL      0.099906
    162 H72         1.6550   -6.2950    0.6470 hc        1 MOL      0.099906
    163 N14        -2.8800   -4.1430    2.7340 n         1 MOL     -0.322335
    164 C55        -3.5370   -3.2730    3.7710 c3        1 MOL     -0.231680
    165 H73        -4.2510   -2.6060    3.2870 h1        1 MOL      0.102483
    166 H74        -4.0590   -3.8980    4.4950 h1        1 MOL      0.102483
    167 H75        -2.7780   -2.6810    4.2830 h1        1 MOL      0.102483
    168 H76        -3.1510   -3.8910    1.7970 hn        1 MOL      0.311225
    169 Ca1         2.4120   -2.0700   -2.2150 Ca        1 MOL      1.744874
    170 O24         4.1460   -0.7620   -3.9110 oh        1 MOL     -0.893705
    171 H77         3.9440   -0.3780   -4.7620 ho        1 MOL      0.430129
    172 H78         5.0570   -1.0360   -3.9800 ho        1 MOL      0.430129
    173 O25         4.1650   -3.6810   -3.3520 oh        1 MOL     -0.893705
    174 H79         4.4060   -4.5500   -3.6630 ho        1 MOL      0.430129
    175 H80         4.9880   -3.2870   -3.0700 ho        1 MOL      0.430129
    176 O26         1.5240   -2.0070   -4.6740 oh        1 MOL     -0.893705
    177 H81         1.8810   -2.8110   -5.0530 ho        1 MOL      0.430129
    178 H82         1.0770   -1.5840   -5.4030 ho        1 MOL      0.430129
@<TRIPOS>BOND
     1    1    2 1   
     2    1    4 1   
     3    1    5 1   
     4    1    6 1   
     5    2    3 2   
     6    2    7 1   
     7    7    8 1   
     8    7   15 1   
     9    8    9 1   
    10    8   11 1   
    11    8   16 1   
    12    9   10 2   
    13    9   19 1   
    14   11   12 1   
    15   11   17 1   
    16   11   18 1   
    17   12   13 1   
    18   12   14 1   
    19   19   20 1   
    20   19   24 1   
    21   20   21 1   
    22   20   23 1   
    23   20   25 1   
    24   21   22 2   
    25   21   29 1   
    26   23   26 1   
    27   23   27 1   
    28   23   28 1   
    29   29   30 1   
    30   29   37 1   
    31   30   31 1   
    32   30   33 1   
    33   30   38 1   
    34   31   32 2   
    35   31   41 1   
    36   33   34 1   
    37   33   39 1   
    38   33   40 1   
    39   34   35 1   
    40   34   36 1   
    41   41   42 1   
    42   41   45 1   
    43   42   43 1   
    44   42   46 1   
    45   42   47 1   
    46   43   44 2   
    47   43   48 1   
    48   48   49 1   
    49   48   56 1   
    50   49   50 1   
    51   49   52 1   
    52   49   57 1   
    53   50   51 2   
    54   50   62 1   
    55   52   53 1   
    56   52   58 1   
    57   52   59 1   
    58   53   54 1   
    59   53   55 2   
    60   54   60 1   
    61   54   61 1   
    62   62   63 1   
    63   62   66 1   
    64   63   64 1   
    65   63   67 1   
    66   63   68 1   
    67   64   65 2   
    68   64   69 1   
    69   69   70 1   
    70   69   76 1   
    71   70   71 1   
    72   70   73 1   
    73   70   77 1   
    74   71   72 2   
    75   71   83 1   
    76   73   74 1   
    77   73   75 1   
    78   73   78 1   
    79   74   80 1   
    80   74   81 1   
    81   74   82 1   
    82   75   79 1   
    83   83   84 1   
    84   83   91 1   
    85   84   85 1   
    86   84   87 1   
    87   84   92 1   
    88   85   86 2   
    89   85  102 1   
    90   87   88 1   
    91   87   89 1   
    92   87   93 1   
    93   88   90 1   
    94   88   94 1   
    95   88   95 1   
    96   89   96 1   
    97   89   97 1   
    98   89   98 1   
    99   90   99 1   
   100   90  100 1   
   101   90  101 1   
   102  102  103 1   
   103  102  110 1   
   104  103  104 1   
   105  103  106 1   
   106  103  111 1   
   107  104  105 2   
   108  104  114 1   
   109  106  107 1   
   110  106  112 1   
   111  106  113 1   
   112  107  108 1   
   113  107  109 1   
   114  114  115 1   
   115  114  125 1   
   116  115  116 1   
   117  115  118 1   
   118  115  126 1   
   119  116  117 2   
   120  116  134 1   
   121  118  119 1   
   122  118  127 1   
   123  118  128 1   
   124  119  120 ar  
   125  119  121 ar  
   126  120  122 ar  
   127  120  129 1   
   128  121  123 ar  
   129  121  130 1   
   130  122  124 ar  
   131  122  131 1   
   132  123  124 ar  
   133  123  132 1   
   134  124  133 1   
   135  134  135 1   
   136  134  140 1   
   137  135  136 1   
   138  135  138 1   
   139  135  141 1   
   140  136  137 2   
   141  136  148 1   
   142  138  139 1   
   143  138  142 1   
   144  138  143 1   
   145  139  140 1   
   146  139  144 1   
   147  139  145 1   
   148  140  146 1   
   149  140  147 1   
   150  148  149 1   
   151  148  157 1   
   152  149  150 1   
   153  149  152 1   
   154  149  158 1   
   155  150  151 2   
   156  150  163 1   
   157  152  153 1   
   158  152  159 1   
   159  152  160 1   
   160  153  154 1   
   161  153  161 1   
   162  153  162 1   
   163  154  155 1   
   164  154  156 1   
   165  163  164 1   
   166  163  168 1   
   167  164  165 1   
   168  164  166 1   
   169  164  167 1   
   170  170  171 1   
   171  170  172 1   
   172  173  174 1   
   173  173  175 1   
   174  176  177 1   
   175  176  178 1   
@<TRIPOS>SUBSTRUCTURE
     1 MOL         1 TEMP              0 ****  ****    0 ROOT
