@<TRIPOS>MOLECULE
MOL
  178   175     1     0     0
SMALL
resp


@<TRIPOS>ATOM
      1 C1          2.1130   -1.8050    5.3490 c3        1 MOL     -0.340086
      2 C2          3.1400   -1.5280    4.2710 c         1 MOL      0.665125
      3 O1          3.0630   -0.4650    3.6490 o         1 MOL     -0.558043
      4 H1          2.0230   -2.8820    5.4960 hc        1 MOL      0.080497
      5 H2          2.4280   -1.3370    6.2810 hc        1 MOL      0.080497
      6 H3          1.1480   -1.3990    5.0450 hc        1 MOL      0.080497
      7 N1          4.1380   -2.3940    4.2130 n         1 MOL     -0.526889
      8 C3          5.4960   -1.9420    3.6680 c3        1 MOL      0.043488
      9 C4          5.8050   -2.3890    2.2000 c         1 MOL      0.620140
     10 O2          6.6120   -1.7660    1.5870 o         1 MOL     -0.472513
     11 C5          6.5350   -2.3430    4.7030 c3        1 MOL     -0.132769
     12 C6          7.9090   -1.8360    4.3950 c         1 MOL      0.703807
     13 O3          8.7760   -2.6640    4.1990 o         1 MOL     -0.718852
     14 O4          8.1540   -0.6240    4.2080 o         1 MOL     -0.718852
     15 H4          4.1630   -3.1180    4.9230 hn        1 MOL      0.293031
     16 H5          5.4340   -0.8560    3.6170 h1        1 MOL      0.082738
     17 H6          6.5230   -3.4240    4.8230 hc        1 MOL     -0.010916
     18 H7          6.3370   -1.9690    5.7090 hc        1 MOL     -0.010916
     19 N2          5.1270   -3.4610    1.8020 n         1 MOL     -0.435177
     20 C7          5.2390   -4.0360    0.4310 c3        1 MOL      0.190257
     21 C8          4.8510   -3.0000   -0.6880 c         1 MOL      0.688903
     22 O5          3.6730   -2.8680   -0.9670 o         1 MOL     -0.769490
     23 C9          6.5570   -4.7740    0.2170 c3        1 MOL     -0.530639
     24 H8          4.2980   -3.6820    2.3470 hn        1 MOL      0.228796
     25 H9          4.4730   -4.8090    0.3860 h1        1 MOL      0.067757
     26 H10         6.5520   -5.3790   -0.6810 hc        1 MOL      0.142539
     27 H11         7.4460   -4.1350    0.1780 hc        1 MOL      0.142539
     28 H12         6.6070   -5.3800    1.1290 hc        1 MOL      0.142539
     29 N3          5.8600   -2.2440   -1.1270 n         1 MOL     -0.399086
     30 C10         5.7520   -1.2030   -2.1400 c3        1 MOL     -0.010504
     31 C11         5.8070    0.2470   -1.6310 c         1 MOL      0.450476
     32 O6          5.9990    1.1700   -2.4250 o         1 MOL     -0.527427
     33 C12         6.8740   -1.3270   -3.1390 c3        1 MOL     -0.166871
     34 C13         6.9600   -2.8260   -3.5810 c         1 MOL      0.728111
     35 O7          5.9920   -3.4600   -3.9850 o         1 MOL     -0.720754
     36 O8          8.0630   -3.3740   -3.4450 o         1 MOL     -0.720754
     37 H13         6.7470   -2.2660   -0.6440 hn        1 MOL      0.290447
     38 H14         4.8520   -1.3810   -2.7160 h1        1 MOL      0.094758
     39 H15         7.8630   -1.0540   -2.7600 hc        1 MOL      0.020020
     40 H16         6.6410   -0.8440   -4.0830 hc        1 MOL      0.020020
     41 N4          5.7200    0.5010   -0.3200 n         1 MOL      0.007975
     42 C14         5.8450    1.8590    0.2100 c3        1 MOL     -0.129527
     43 C15         4.8060    2.8530   -0.4070 c         1 MOL      0.516251
     44 O9          5.2450    4.0040   -0.8260 o         1 MOL     -0.543351
     45 H17         5.6700   -0.2760    0.3230 hn        1 MOL      0.064173
     46 H18         6.8080    2.0580   -0.2500 h1        1 MOL      0.076846
     47 H19         5.8600    1.7780    1.2920 h1        1 MOL      0.076846
     48 N5          3.6200    2.4180   -0.8150 n         1 MOL     -0.263740
     49 C16         2.7900    3.0540   -1.8470 c3        1 MOL     -0.157894
     50 C17         2.2730    4.5030   -1.4900 c         1 MOL      0.606333
     51 O10         2.2170    4.8510   -0.2580 o         1 MOL     -0.527840
     52 C18         1.6690    2.0210   -2.2080 c3        1 MOL     -0.390441
     53 C19         2.1750    0.9620   -3.1530 c         1 MOL      0.906053
     54 N6          2.3740    1.3210   -4.3880 n         1 MOL     -0.864377
     55 O11         2.3960   -0.1630   -2.7430 o         1 MOL     -0.650296
     56 H20         3.4110    1.4460   -0.6390 hn        1 MOL      0.202287
     57 H21         3.3470    3.0980   -2.7830 h1        1 MOL      0.059792
     58 H22         0.8750    2.6190   -2.6520 hc        1 MOL      0.146492
     59 H23         1.2930    1.5100   -1.3150 hc        1 MOL      0.146492
     60 H24         2.1150    2.2530   -4.6910 hn        1 MOL      0.377611
     61 H25         2.9270    0.7480   -5.0050 hn        1 MOL      0.377611
     62 N7          1.7920    5.2620   -2.4750 n         1 MOL     -0.337733
     63 C20         1.4090    6.6320   -2.1890 c3        1 MOL     -0.338354
     64 C21         0.0340    6.8280   -1.5940 c         1 MOL      0.759558
     65 O12        -0.9370    6.3720   -2.1860 o         1 MOL     -0.533178
     66 H26         1.7680    4.9170   -3.4280 hn        1 MOL      0.279190
     67 H27         1.2740    7.1960   -3.1080 h1        1 MOL      0.144952
     68 H28         2.2360    7.0820   -1.6400 h1        1 MOL      0.144952
     69 N8         -0.0880    7.5790   -0.4810 n         1 MOL     -0.655961
     70 C22        -1.4680    8.0020    0.0620 c3        1 MOL     -0.257432
     71 C23        -2.3170    6.9030    0.6570 c         1 MOL      0.504877
     72 O13        -3.4460    7.1340    1.1330 o         1 MOL     -0.567860
     73 C24        -1.3310    9.1960    1.0490 c3        1 MOL      0.651217
     74 C25        -0.5910    8.8760    2.3100 c3        1 MOL     -0.412363
     75 O14        -0.6300   10.1740    0.4310 oh        1 MOL     -0.688821
     76 H29         0.6980    8.0580   -0.0660 hn        1 MOL      0.310258
     77 H30        -2.0220    8.3640   -0.8080 h1        1 MOL      0.155023
     78 H31        -2.3600    9.5050    1.2090 h1        1 MOL     -0.013130
     79 H32         0.2310    9.8460    0.1490 ho        1 MOL      0.400811
     80 H33        -0.4340    9.8490    2.7760 hc        1 MOL      0.093697
     81 H34        -1.2470    8.2250    2.8990 hc        1 MOL      0.093697
     82 H35         0.3710    8.3750    2.1870 hc        1 MOL      0.093697
     83 N9         -1.8300    5.6580    0.5220 n         1 MOL     -0.175508
     84 C26        -2.3930    4.3440    1.0430 c3        1 MOL     -0.066579
     85 C27        -2.3910    3.2750   -0.0930 c         1 MOL      0.507708
     86 O15        -1.9840    3.5430   -1.2240 o         1 MOL     -0.492892
     87 C28        -1.4370    3.9270    2.2480 c3        1 MOL      0.184521
     88 C29         0.0310    3.9330    1.9590 c3        1 MOL     -0.144439
     89 C30        -1.7200    4.9560    3.2920 c3        1 MOL     -0.481005
     90 C31         0.7750    2.9280    2.9020 c3        1 MOL     -0.151148
     91 H36        -1.0490    5.4970   -0.0990 hn        1 MOL      0.160813
     92 H37        -3.4340    4.4700    1.3600 h1        1 MOL      0.083617
     93 H38        -1.7050    2.9210    2.5870 hc        1 MOL     -0.000027
     94 H39         0.3210    4.9660    2.1500 hc        1 MOL      0.121846
     95 H40         0.0240    3.6390    0.9010 hc        1 MOL      0.121846
     96 H41        -2.8040    5.0530    3.3390 hc        1 MOL      0.103737
     97 H42        -1.4640    4.5690    4.2770 hc        1 MOL      0.103737
     98 H43        -1.4090    5.9950    3.1220 hc        1 MOL      0.103737
     99 H44         0.2000    2.0080    3.0150 hc        1 MOL      0.059139
    100 H45         1.7740    2.7280    2.5010 hc        1 MOL      0.059139
    101 H46         0.8570    3.4740    3.8480 hc        1 MOL      0.059139
    102 N10        -2.8940    2.1230    0.2440 n         1 MOL     -0.575657
    103 C32        -2.6430    0.8350   -0.4050 c3        1 MOL      0.252674
    104 C33        -3.8420   -0.1080   -0.5550 c         1 MOL      0.365354
    105 O16        -3.6470   -1.3080   -0.7010 o         1 MOL     -0.426047
    106 C34        -1.4300    0.2020    0.3230 c3        1 MOL     -0.034875
    107 C35        -0.4930   -0.5380   -0.6220 c         1 MOL      0.556683
    108 O17         0.5890   -1.0300   -0.2410 o         1 MOL     -0.723697
    109 O18        -0.7500   -0.5480   -1.7920 o         1 MOL     -0.723697
    110 H47        -3.2940    2.1190    1.1690 hn        1 MOL      0.252752
    111 H48        -2.4400    1.2100   -1.4100 h1        1 MOL      0.071187
    112 H49        -1.7160   -0.4560    1.1410 hc        1 MOL      0.034095
    113 H50        -0.9210    0.9900    0.8740 hc        1 MOL      0.034095
    114 N11        -5.0580    0.3940   -0.3870 n         1 MOL     -0.402599
    115 C36        -6.2500   -0.4830   -0.5530 c3        1 MOL      0.226061
    116 C37        -6.4850   -1.6140    0.4400 c         1 MOL      0.134377
    117 O19        -6.4750   -1.3360    1.6300 o         1 MOL     -0.463846
    118 C38        -7.5800    0.3140   -0.6060 c3        1 MOL     -0.289748
    119 C39        -8.7890   -0.5830   -1.0220 ca        1 MOL      0.055296
    120 C40        -9.0630   -0.8740   -2.4280 ca        1 MOL     -0.135044
    121 C41        -9.6340   -1.1670   -0.0620 ca        1 MOL     -0.135044
    122 C42       -10.1570   -1.6970   -2.7770 ca        1 MOL     -0.153675
    123 C43       -10.6400   -2.0610   -0.4440 ca        1 MOL     -0.153675
    124 C44       -10.9170   -2.2730   -1.7760 ca        1 MOL     -0.062814
    125 H51        -5.1530    1.3990   -0.3820 hn        1 MOL      0.275191
    126 H52        -6.1420   -0.9060   -1.5560 h1        1 MOL      0.047478
    127 H53        -7.5060    1.2490   -1.1740 hc        1 MOL      0.115366
    128 H54        -7.8360    0.6190    0.4040 hc        1 MOL      0.115366
    129 H55        -8.5030   -0.3780   -3.2040 ha        1 MOL      0.122698
    130 H56        -9.4540   -0.8690    0.9590 ha        1 MOL      0.122698
    131 H57       -10.4770   -1.8800   -3.7920 ha        1 MOL      0.118463
    132 H58       -11.1610   -2.5690    0.3550 ha        1 MOL      0.118463
    133 H59       -11.7240   -2.9210   -2.0860 ha        1 MOL      0.088044
    134 N12        -6.6910   -2.8620    0.0290 n         1 MOL      0.075061
    135 C45        -6.7610   -4.0210    0.9690 c3        1 MOL     -0.062405
    136 C46        -5.4970   -4.1810    1.7350 c         1 MOL      0.340236
    137 O20        -5.4310   -4.9960    2.5550 o         1 MOL     -0.535881
    138 C47        -7.1220   -5.2500    0.1200 c3        1 MOL      0.015580
    139 C48        -7.3340   -4.7600   -1.3160 c3        1 MOL     -0.166312
    140 C49        -6.7840   -3.3230   -1.2960 c3        1 MOL      0.209405
    141 H60        -7.4820   -3.8730    1.7730 h1        1 MOL      0.079915
    142 H61        -6.2060   -5.8390    0.1650 hc        1 MOL      0.032634
    143 H62        -7.9660   -5.8330    0.4870 hc        1 MOL      0.032634
    144 H63        -6.8590   -5.4110   -2.0490 hc        1 MOL      0.045434
    145 H64        -8.3930   -4.6130   -1.4940 hc        1 MOL      0.045434
    146 H65        -5.8080   -3.2160   -1.7670 h1        1 MOL     -0.038955
    147 H66        -7.3420   -2.5770   -1.8700 h1        1 MOL     -0.038955
    148 N13        -4.4100   -3.5530    1.3690 n         1 MOL      0.072168
    149 C50        -3.1450   -3.6560    2.1300 c3        1 MOL     -0.184954
    150 C51        -3.1160   -2.4940    3.1780 c         1 MOL      0.446109
    151 O21        -2.4330   -2.6880    4.2150 o         1 MOL     -0.547482
    152 C52        -1.9150   -3.6500    1.2520 c3        1 MOL      0.123373
    153 C53        -1.8080   -4.6340    0.0900 c3        1 MOL     -0.132036
    154 C54        -0.7160   -4.2860   -0.9330 c         1 MOL      0.662782
    155 O22         0.4500   -4.3300   -0.5410 o         1 MOL     -0.733130
    156 O23        -0.9830   -3.7120   -2.0560 o         1 MOL     -0.733130
    157 H67        -4.4300   -3.1840    0.4300 hn        1 MOL      0.102577
    158 H68        -3.0540   -4.6470    2.5750 h1        1 MOL      0.108498
    159 H69        -0.9860   -3.6340    1.8140 hc        1 MOL      0.023592
    160 H70        -1.9240   -2.6650    0.7890 hc        1 MOL      0.023592
    161 H71        -2.7660   -4.8160   -0.3960 hc        1 MOL      0.002239
    162 H72        -1.5850   -5.6320    0.4690 hc        1 MOL      0.002239
    163 N14        -3.9180   -1.3980    3.0790 n         1 MOL     -0.096650
    164 C55        -4.0590   -0.4230    4.1500 c3        1 MOL     -0.229974
    165 H73        -3.9390    0.5820    3.7450 h1        1 MOL      0.092784
    166 H74        -5.0470   -0.5160    4.6000 h1        1 MOL      0.092784
    167 H75        -3.2960   -0.6020    4.9080 h1        1 MOL      0.092784
    168 H76        -4.5820   -1.3980    2.3110 hn        1 MOL      0.111238
    169 Ca1         1.3950   -2.5630   -2.1810 Ca        1 MOL      1.848990
    170 O24         0.2720   -1.8980   -4.6380 oh        1 MOL     -0.876786
    171 H77        -0.3190   -2.5050   -5.0870 ho        1 MOL      0.419000
    172 H78         0.1650   -1.0660   -5.1090 ho        1 MOL      0.419000
    173 O25         3.2940   -2.6290   -3.9310 oh        1 MOL     -0.876786
    174 H79         3.5010   -2.1070   -4.7080 ho        1 MOL      0.419000
    175 H80         4.0210   -3.2500   -3.8670 ho        1 MOL      0.419000
    176 O26         2.3730   -5.4410   -2.6360 oh        1 MOL     -0.876786
    177 H81         1.8450   -6.2410   -2.5830 ho        1 MOL      0.419000
    178 H82         3.2860   -5.7460   -2.6480 ho        1 MOL      0.419000
@<TRIPOS>BOND
     1    1    2 1   
     2    1    4 1   
     3    1    5 1   
     4    1    6 1   
     5    2    3 2   
     6    2    7 1   
     7    7    8 1   
     8    7   15 1   
     9    8    9 1   
    10    8   11 1   
    11    8   16 1   
    12    9   10 2   
    13    9   19 1   
    14   11   12 1   
    15   11   17 1   
    16   11   18 1   
    17   12   13 1   
    18   12   14 1   
    19   19   20 1   
    20   19   24 1   
    21   20   21 1   
    22   20   23 1   
    23   20   25 1   
    24   21   22 2   
    25   21   29 1   
    26   23   26 1   
    27   23   27 1   
    28   23   28 1   
    29   29   30 1   
    30   29   37 1   
    31   30   31 1   
    32   30   33 1   
    33   30   38 1   
    34   31   32 2   
    35   31   41 1   
    36   33   34 1   
    37   33   39 1   
    38   33   40 1   
    39   34   35 1   
    40   34   36 1   
    41   41   42 1   
    42   41   45 1   
    43   42   43 1   
    44   42   46 1   
    45   42   47 1   
    46   43   44 2   
    47   43   48 1   
    48   48   49 1   
    49   48   56 1   
    50   49   50 1   
    51   49   52 1   
    52   49   57 1   
    53   50   51 2   
    54   50   62 1   
    55   52   53 1   
    56   52   58 1   
    57   52   59 1   
    58   53   54 1   
    59   53   55 2   
    60   54   60 1   
    61   54   61 1   
    62   62   63 1   
    63   62   66 1   
    64   63   64 1   
    65   63   67 1   
    66   63   68 1   
    67   64   65 2   
    68   64   69 1   
    69   69   70 1   
    70   69   76 1   
    71   70   71 1   
    72   70   73 1   
    73   70   77 1   
    74   71   72 2   
    75   71   83 1   
    76   73   74 1   
    77   73   75 1   
    78   73   78 1   
    79   74   80 1   
    80   74   81 1   
    81   74   82 1   
    82   75   79 1   
    83   83   84 1   
    84   83   91 1   
    85   84   85 1   
    86   84   87 1   
    87   84   92 1   
    88   85   86 2   
    89   85  102 1   
    90   87   88 1   
    91   87   89 1   
    92   87   93 1   
    93   88   90 1   
    94   88   94 1   
    95   88   95 1   
    96   89   96 1   
    97   89   97 1   
    98   89   98 1   
    99   90   99 1   
   100   90  100 1   
   101   90  101 1   
   102  102  103 1   
   103  102  110 1   
   104  103  104 1   
   105  103  106 1   
   106  103  111 1   
   107  104  105 2   
   108  104  114 1   
   109  106  107 1   
   110  106  112 1   
   111  106  113 1   
   112  107  108 1   
   113  107  109 1   
   114  114  115 1   
   115  114  125 1   
   116  115  116 1   
   117  115  118 1   
   118  115  126 1   
   119  116  117 2   
   120  116  134 1   
   121  118  119 1   
   122  118  127 1   
   123  118  128 1   
   124  119  120 ar  
   125  119  121 ar  
   126  120  122 ar  
   127  120  129 1   
   128  121  123 ar  
   129  121  130 1   
   130  122  124 ar  
   131  122  131 1   
   132  123  124 ar  
   133  123  132 1   
   134  124  133 1   
   135  134  135 1   
   136  134  140 1   
   137  135  136 1   
   138  135  138 1   
   139  135  141 1   
   140  136  137 2   
   141  136  148 1   
   142  138  139 1   
   143  138  142 1   
   144  138  143 1   
   145  139  140 1   
   146  139  144 1   
   147  139  145 1   
   148  140  146 1   
   149  140  147 1   
   150  148  149 1   
   151  148  157 1   
   152  149  150 1   
   153  149  152 1   
   154  149  158 1   
   155  150  151 2   
   156  150  163 1   
   157  152  153 1   
   158  152  159 1   
   159  152  160 1   
   160  153  154 1   
   161  153  161 1   
   162  153  162 1   
   163  154  155 1   
   164  154  156 1   
   165  163  164 1   
   166  163  168 1   
   167  164  165 1   
   168  164  166 1   
   169  164  167 1   
   170  170  171 1   
   171  170  172 1   
   172  173  174 1   
   173  173  175 1   
   174  176  177 1   
   175  176  178 1   
@<TRIPOS>SUBSTRUCTURE
     1 MOL         1 TEMP              0 ****  ****    0 ROOT
