@<TRIPOS>MOLECULE
MOL
  195   189     1     0     0
SMALL
resp


@<TRIPOS>ATOM
      1 C1         -3.4960   -2.1620    2.6480 c3        1 MOL     -0.387508
      2 C2         -2.4290   -2.6230    1.6740 c         1 MOL      0.643954
      3 O1         -1.6030   -1.7700    1.2650 o         1 MOL     -0.494079
      4 H1         -3.8210   -1.1560    2.3810 hc        1 MOL      0.087002
      5 H2         -4.3470   -2.8420    2.6040 hc        1 MOL      0.087002
      6 H3         -3.0880   -2.1550    3.6590 hc        1 MOL      0.087002
      7 N1         -2.4290   -3.8910    1.3450 n         1 MOL     -0.473462
      8 C3         -1.5980   -4.6000    0.3640 c3        1 MOL     -0.051938
      9 C4         -0.0840   -4.5130    0.4870 c         1 MOL      0.702400
     10 O2          0.7840   -4.4100   -0.4280 o         1 MOL     -0.571952
     11 C5         -2.0280   -4.2810   -1.0430 c3        1 MOL     -0.429547
     12 C6         -3.5450   -4.3660   -1.1440 c         1 MOL      0.857717
     13 O3         -4.0510   -5.4280   -0.7720 o         1 MOL     -0.731590
     14 O4         -4.2480   -3.4770   -1.6800 o         1 MOL     -0.731590
     15 H4         -3.0870   -4.5770    1.6890 hn        1 MOL      0.260891
     16 H5         -1.7800   -5.6640    0.4800 h1        1 MOL      0.108562
     17 H6         -1.6150   -5.0370   -1.7150 hc        1 MOL      0.142751
     18 H7         -1.6520   -3.3260   -1.4270 hc        1 MOL      0.142751
     19 N2          0.4460   -4.4480    1.7680 n         1 MOL     -0.418298
     20 C7          1.8910   -4.4300    2.1270 c3        1 MOL     -0.735005
     21 C8          2.5860   -5.8240    1.9100 c         1 MOL      0.639482
     22 O5          1.8900   -6.7940    1.8360 o         1 MOL     -0.584670
     23 C9          2.0360   -3.8410    3.5480 c3        1 MOL      0.156377
     24 C10         1.4530   -4.7800    4.6390 c3        1 MOL      0.149304
     25 C11         1.3250   -2.4450    3.5740 c3        1 MOL     -0.044109
     26 C12         1.4640   -4.4330    6.0610 c3        1 MOL     -0.301709
     27 H8         -0.2700   -4.6150    2.4570 hn        1 MOL      0.275570
     28 H9          2.2360   -3.7280    1.3670 h1        1 MOL      0.350518
     29 H10         3.1050   -3.6830    3.6620 hc        1 MOL      0.027360
     30 H11         2.0100   -5.7110    4.5670 hc        1 MOL      0.016248
     31 H12         0.3910   -4.9070    4.4290 hc        1 MOL      0.016248
     32 H13         1.6840   -1.7600    4.3320 hc        1 MOL      0.017350
     33 H14         1.3900   -1.9970    2.5830 hc        1 MOL      0.017350
     34 H15         0.2440   -2.5360    3.6800 hc        1 MOL      0.017350
     35 H16         2.5320   -4.3290    6.3040 hc        1 MOL      0.050722
     36 H17         0.9730   -3.4790    6.2560 hc        1 MOL      0.050722
     37 H18         1.0460   -5.3050    6.5660 hc        1 MOL      0.050722
     38 N3          3.8590   -5.9030    1.8230 n         1 MOL     -0.184940
     39 C13         4.7870   -4.7940    1.7110 c3        1 MOL     -0.113203
     40 C14         4.6990   -3.9690    0.4360 c         1 MOL      0.640867
     41 O6          4.9670   -2.7810    0.5020 o         1 MOL     -0.615459
     42 C15         6.1580   -5.4030    1.8530 c3        1 MOL     -0.268018
     43 C16         6.4650   -6.6410    0.9480 c         1 MOL      0.670103
     44 O7          5.7940   -7.7330    1.2540 o         1 MOL     -0.675057
     45 O8          7.2170   -6.6120   -0.0440 o         1 MOL     -0.675057
     46 H19         4.2460   -6.7970    1.5710 hn        1 MOL      0.126585
     47 H20         4.7490   -4.0730    2.5400 h1        1 MOL      0.107037
     48 H21         6.4160   -5.8690    2.7960 hc        1 MOL      0.060040
     49 H22         6.7790   -4.5470    1.5660 hc        1 MOL      0.060040
     50 N4          4.2130   -4.5160   -0.7020 n         1 MOL     -0.284763
     51 C17         4.0270   -3.7620   -1.9020 c3        1 MOL     -0.248331
     52 C18         5.3050   -3.1330   -2.4360 c         1 MOL      0.491205
     53 O9          6.3710   -3.7460   -2.4810 o         1 MOL     -0.478738
     54 H23         3.9770   -5.5010   -0.6920 hn        1 MOL      0.309093
     55 H24         3.3390   -2.9380   -1.7030 h1        1 MOL      0.129121
     56 H25         3.5050   -4.3580   -2.6490 h1        1 MOL      0.129121
     57 N5          5.2120   -1.8040   -2.7970 n         1 MOL     -0.434480
     58 C19         6.3920   -1.0470   -3.2640 c3        1 MOL      0.067987
     59 C20         7.2720   -0.5860   -2.0770 c         1 MOL      0.354650
     60 O10         8.4880   -0.3040   -2.2250 o         1 MOL     -0.564684
     61 C21         6.0100    0.0590   -4.2520 c3        1 MOL     -0.193163
     62 C22         4.8470    0.8110   -3.6000 c         1 MOL      0.694043
     63 O11         5.2070    1.7710   -2.8320 o         1 MOL     -0.694944
     64 O12         3.6410    0.4300   -3.7370 o         1 MOL     -0.694944
     65 H26         4.3390   -1.3120   -2.7140 hn        1 MOL      0.273195
     66 H27         7.1220   -1.6920   -3.7410 h1        1 MOL      0.080965
     67 H28         5.7350   -0.3800   -5.2100 hc        1 MOL      0.031624
     68 H29         6.7560    0.8490   -4.3360 hc        1 MOL      0.031624
     69 N6          6.7390   -0.3980   -0.8540 n         1 MOL      0.027716
     70 C23         7.3280    0.1910    0.4000 c3        1 MOL     -0.440776
     71 C24         7.4950    1.7000    0.4580 c         1 MOL      0.517143
     72 O13         8.2410    2.1850    1.3620 o         1 MOL     -0.589645
     73 H30         5.7560   -0.6000   -0.7750 hn        1 MOL      0.230712
     74 H31         8.2970   -0.2350    0.6480 h1        1 MOL      0.171791
     75 H32         6.6150    0.0470    1.2050 h1        1 MOL      0.171791
     76 N7          6.9400    2.4150   -0.5200 n         1 MOL      0.102324
     77 C25         6.8480    3.8220   -0.7330 c3        1 MOL     -0.044939
     78 C26         6.2270    4.6370    0.4580 c         1 MOL      0.491182
     79 O14         6.5620    5.7660    0.6490 o         1 MOL     -0.500486
     80 C27         8.2210    4.2740   -1.3300 c3        1 MOL      0.107866
     81 C28         8.7870    3.4620   -2.5270 c3        1 MOL     -0.167030
     82 C29        10.0760    4.1280   -3.1110 c         1 MOL      0.713817
     83 N8         10.9200    3.3740   -3.7990 n         1 MOL     -0.848577
     84 O15        10.2680    5.3200   -3.0490 o         1 MOL     -0.585110
     85 H33         6.4400    1.7840   -1.1310 hn        1 MOL     -0.032461
     86 H34         6.2060    4.0590   -1.5680 h1        1 MOL      0.124081
     87 H35         8.9800    4.1900   -0.5500 hc        1 MOL     -0.037147
     88 H36         8.0430    5.3040   -1.6190 hc        1 MOL     -0.037147
     89 H37         8.0010    3.3850   -3.2820 hc        1 MOL      0.049417
     90 H38         9.1210    2.4860   -2.1840 hc        1 MOL      0.049417
     91 H39        10.7780    2.3710   -3.7910 hn        1 MOL      0.361067
     92 H40        11.7390    3.7270   -4.2710 hn        1 MOL      0.361067
     93 N9          5.1870    4.0900    1.1160 n         1 MOL     -0.403377
     94 C30         4.4360    4.6930    2.2660 c3        1 MOL     -0.124005
     95 C31         2.8930    4.6180    2.1700 c         1 MOL      0.675582
     96 O16         2.2380    5.3760    2.9010 o         1 MOL     -0.593476
     97 C32         4.9350    4.1310    3.7140 c3        1 MOL      0.287716
     98 C33         4.5390    2.6600    4.0070 c3        1 MOL     -0.271103
     99 C34         6.4500    4.2330    3.8860 c3        1 MOL     -0.271103
    100 H41         4.7890    3.2630    0.6920 hn        1 MOL      0.186002
    101 H42         4.6700    5.7610    2.2780 h1        1 MOL      0.101264
    102 H43         4.4480    4.7490    4.4770 hc        1 MOL     -0.040876
    103 H44         4.7980    2.4790    5.0490 hc        1 MOL      0.058419
    104 H45         3.4470    2.6020    3.9660 hc        1 MOL      0.058419
    105 H46         4.9650    1.9350    3.3030 hc        1 MOL      0.058419
    106 H47         6.6960    4.0560    4.9300 hc        1 MOL      0.058419
    107 H48         6.9630    3.4860    3.2650 hc        1 MOL      0.058419
    108 H49         6.7530    5.2430    3.6030 hc        1 MOL      0.058419
    109 N10         2.3490    3.6970    1.3750 n         1 MOL     -0.522746
    110 C35         0.8590    3.3700    1.2970 c3        1 MOL      0.137406
    111 C36         0.0860    3.9870    0.1660 c         1 MOL      0.501392
    112 O17         0.7080    4.7530   -0.6070 o         1 MOL     -0.533897
    113 C37         0.7470    1.7970    1.2540 c3        1 MOL     -0.146865
    114 C38         1.4430    1.0760    2.3610 c         1 MOL      0.563096
    115 N11         1.0890    1.3530    3.6070 n         1 MOL     -0.835321
    116 O18         2.3060    0.2970    2.0610 o         1 MOL     -0.505875
    117 H50         3.0080    3.1390    0.8390 hn        1 MOL      0.323377
    118 H51         0.3620    3.7020    2.2080 h1        1 MOL      0.035979
    119 H52         1.0410    1.2640    0.3430 hc        1 MOL      0.099659
    120 H53        -0.3190    1.5590    1.3360 hc        1 MOL      0.099659
    121 H54         0.2870    1.9480    3.7680 hn        1 MOL      0.380083
    122 H55         1.5490    0.8520    4.3620 hn        1 MOL      0.380083
    123 N12        -1.2200    3.8150    0.1260 n         1 MOL     -0.347195
    124 C39        -2.0930    4.4350   -0.8580 c3        1 MOL      0.105996
    125 C40        -3.5360    4.5070   -0.2800 c         1 MOL      0.482060
    126 O19        -3.7310    3.8350    0.7290 o         1 MOL     -0.546453
    127 C41        -2.1030    3.6430   -2.1840 c3        1 MOL     -0.362438
    128 C42        -2.9630    2.3220   -2.2770 ca        1 MOL      0.073598
    129 C43        -2.7420    1.1990   -1.4680 ca        1 MOL     -0.124362
    130 C44        -4.0090    2.2660   -3.2330 ca        1 MOL     -0.124362
    131 C45        -3.5950    0.0540   -1.5580 ca        1 MOL     -0.201998
    132 C46        -4.7060    1.0680   -3.5140 ca        1 MOL     -0.201998
    133 C47        -4.3830   -0.1160   -2.7350 ca        1 MOL      0.179037
    134 O20        -5.1660   -1.2210   -2.8240 oh        1 MOL     -0.503727
    135 H56        -1.6830    3.2900    0.8430 hn        1 MOL      0.235533
    136 H57        -1.8890    5.5010   -0.9850 h1        1 MOL      0.070216
    137 H58        -1.1010    3.3750   -2.5110 hc        1 MOL      0.136980
    138 H59        -2.3670    4.3900   -2.9420 hc        1 MOL      0.136980
    139 H60        -1.9380    1.2650   -0.7510 ha        1 MOL      0.106816
    140 H61        -4.2250    3.1560   -3.8100 ha        1 MOL      0.106816
    141 H62        -3.3990   -0.7540   -0.8620 ha        1 MOL      0.130643
    142 H63        -5.4760    1.0310   -4.2650 ha        1 MOL      0.130643
    143 H64        -4.8660   -1.9350   -2.2490 ho        1 MOL      0.446971
    144 N13        -4.5250    5.1800   -0.8930 n         1 MOL     -0.420938
    145 C48        -5.9540    5.1710   -0.4970 c3        1 MOL      0.075385
    146 C49        -6.7710    4.4070   -1.5590 c         1 MOL      0.443474
    147 O21        -7.0010    4.8460   -2.7170 o         1 MOL     -0.565428
    148 C50        -6.5770    6.5190   -0.1520 c3        1 MOL     -0.081109
    149 C51        -5.8520    7.3200    0.9500 c3        1 MOL     -0.135246
    150 C52        -6.7120    8.5060    1.2790 c         1 MOL      0.724084
    151 O22        -6.3130    9.6130    0.9420 o         1 MOL     -0.719593
    152 O23        -7.7690    8.2870    1.9150 o         1 MOL     -0.719593
    153 H65        -4.4270    5.5800   -1.8190 hn        1 MOL      0.299994
    154 H66        -6.1150    4.6740    0.4590 h1        1 MOL      0.133980
    155 H67        -7.6040    6.3000    0.1480 hc        1 MOL      0.047391
    156 H68        -6.6870    7.1940   -1.0010 hc        1 MOL      0.047391
    157 H69        -4.9300    7.5610    0.4070 hc        1 MOL      0.003749
    158 H70        -5.6570    6.7240    1.8350 hc        1 MOL      0.003749
    159 N14        -7.0620    3.0940   -1.3180 n         1 MOL     -0.228622
    160 C53        -6.7290    2.2600   -0.2220 c3        1 MOL     -0.674239
    161 C54        -7.6450    2.7270    0.9490 c         1 MOL      0.672101
    162 O24        -8.8120    3.1350    0.8240 o         1 MOL     -0.539723
    163 C55        -7.0820    0.8040   -0.4840 c3        1 MOL      0.016287
    164 C56        -6.9160   -0.1470    0.6950 c3        1 MOL      0.068950
    165 C57        -7.2370   -1.5780    0.3220 c         1 MOL      0.648671
    166 O25        -8.4680   -1.7980    0.2490 o         1 MOL     -0.745527
    167 O26        -6.3280   -2.4190    0.1350 o         1 MOL     -0.745527
    168 H71        -7.4940    2.6020   -2.0830 hn        1 MOL      0.265067
    169 H72        -5.6770    2.3130    0.0450 h1        1 MOL      0.311075
    170 H73        -6.4100    0.5520   -1.2990 hc        1 MOL      0.075147
    171 H74        -8.0950    0.7040   -0.8790 hc        1 MOL      0.075147
    172 H75        -7.4880    0.1920    1.5700 hc        1 MOL     -0.014813
    173 H76        -5.8640   -0.0040    0.9430 hc        1 MOL     -0.014813
    174 N15        -7.0590    2.9150    2.1570 n         1 MOL     -0.307840
    175 C58        -7.7330    3.4120    3.3890 c3        1 MOL     -0.150089
    176 H77        -8.3580    4.2700    3.1400 h1        1 MOL      0.083485
    177 H78        -8.3550    2.6200    3.8080 h1        1 MOL      0.083485
    178 H79        -6.9820    3.7100    4.1200 h1        1 MOL      0.083485
    179 H80        -6.0530    2.8820    2.2210 hn        1 MOL      0.231658
    180 Ca1        -6.5040   -4.6820   -0.9980 Ca        1 MOL      1.707776
    181 O27        -7.4810   -3.1060   -2.7770 oh        1 MOL     -0.826357
    182 H81        -7.2030   -2.8460   -3.6600 ho        1 MOL      0.396294
    183 H82        -8.1970   -2.5210   -2.5610 ho        1 MOL      0.396294
    184 O28        -8.5330   -6.4560   -2.0850 oh        1 MOL     -0.826357
    185 H83        -8.6880   -6.5370   -3.0310 ho        1 MOL      0.396294
    186 H84        -9.3930   -6.5730   -1.6910 ho        1 MOL      0.396294
    187 O29        -5.4030   -6.4530   -2.9850 oh        1 MOL     -0.826357
    188 H85        -4.5090   -6.4940   -3.3250 ho        1 MOL      0.396294
    189 H86        -5.6900   -7.3670   -2.9450 ho        1 MOL      0.396294
    190 O30        -8.9350   -4.4120    0.0620 oh        1 MOL     -0.826357
    191 H87        -9.8510   -4.6760    0.1340 ho        1 MOL      0.396294
    192 H88        -8.9430   -3.4670    0.1810 ho        1 MOL      0.396294
    193 O31        -6.6780   -7.6890   -0.6680 oh        1 MOL     -0.826357
    194 H89        -7.6080   -7.5760   -0.8460 ho        1 MOL      0.396294
    195 H90        -6.3620   -8.2710   -1.3530 ho        1 MOL      0.396294
@<TRIPOS>BOND
     1    1    2 1   
     2    1    4 1   
     3    1    5 1   
     4    1    6 1   
     5    2    3 2   
     6    2    7 1   
     7    7    8 1   
     8    7   15 1   
     9    8    9 1   
    10    8   11 1   
    11    8   16 1   
    12    9   10 2   
    13    9   19 1   
    14   11   12 1   
    15   11   17 1   
    16   11   18 1   
    17   12   13 1   
    18   12   14 1   
    19   19   20 1   
    20   19   27 1   
    21   20   21 1   
    22   20   23 1   
    23   20   28 1   
    24   21   22 2   
    25   21   38 1   
    26   23   24 1   
    27   23   25 1   
    28   23   29 1   
    29   24   26 1   
    30   24   30 1   
    31   24   31 1   
    32   25   32 1   
    33   25   33 1   
    34   25   34 1   
    35   26   35 1   
    36   26   36 1   
    37   26   37 1   
    38   38   39 1   
    39   38   46 1   
    40   39   40 1   
    41   39   42 1   
    42   39   47 1   
    43   40   41 2   
    44   40   50 1   
    45   42   43 1   
    46   42   48 1   
    47   42   49 1   
    48   43   44 1   
    49   43   45 1   
    50   50   51 1   
    51   50   54 1   
    52   51   52 1   
    53   51   55 1   
    54   51   56 1   
    55   52   53 2   
    56   52   57 1   
    57   57   58 1   
    58   57   65 1   
    59   58   59 1   
    60   58   61 1   
    61   58   66 1   
    62   59   60 2   
    63   59   69 1   
    64   61   62 1   
    65   61   67 1   
    66   61   68 1   
    67   62   63 1   
    68   62   64 1   
    69   69   70 1   
    70   69   73 1   
    71   70   71 1   
    72   70   74 1   
    73   70   75 1   
    74   71   72 2   
    75   71   76 1   
    76   76   77 1   
    77   76   85 1   
    78   77   78 1   
    79   77   80 1   
    80   77   86 1   
    81   78   79 2   
    82   78   93 1   
    83   80   81 1   
    84   80   87 1   
    85   80   88 1   
    86   81   82 1   
    87   81   89 1   
    88   81   90 1   
    89   82   83 1   
    90   82   84 2   
    91   83   91 1   
    92   83   92 1   
    93   93   94 1   
    94   93  100 1   
    95   94   95 1   
    96   94   97 1   
    97   94  101 1   
    98   95   96 2   
    99   95  109 1   
   100   97   98 1   
   101   97   99 1   
   102   97  102 1   
   103   98  103 1   
   104   98  104 1   
   105   98  105 1   
   106   99  106 1   
   107   99  107 1   
   108   99  108 1   
   109  109  110 1   
   110  109  117 1   
   111  110  111 1   
   112  110  113 1   
   113  110  118 1   
   114  111  112 2   
   115  111  123 1   
   116  113  114 1   
   117  113  119 1   
   118  113  120 1   
   119  114  115 1   
   120  114  116 2   
   121  115  121 1   
   122  115  122 1   
   123  123  124 1   
   124  123  135 1   
   125  124  125 1   
   126  124  127 1   
   127  124  136 1   
   128  125  126 2   
   129  125  144 1   
   130  127  128 1   
   131  127  137 1   
   132  127  138 1   
   133  128  129 ar  
   134  128  130 ar  
   135  129  131 ar  
   136  129  139 1   
   137  130  132 ar  
   138  130  140 1   
   139  131  133 ar  
   140  131  141 1   
   141  132  133 ar  
   142  132  142 1   
   143  133  134 1   
   144  134  143 1   
   145  144  145 1   
   146  144  153 1   
   147  145  146 1   
   148  145  148 1   
   149  145  154 1   
   150  146  147 2   
   151  146  159 1   
   152  148  149 1   
   153  148  155 1   
   154  148  156 1   
   155  149  150 1   
   156  149  157 1   
   157  149  158 1   
   158  150  151 1   
   159  150  152 1   
   160  159  160 1   
   161  159  168 1   
   162  160  161 1   
   163  160  163 1   
   164  160  169 1   
   165  161  162 2   
   166  161  174 1   
   167  163  164 1   
   168  163  170 1   
   169  163  171 1   
   170  164  165 1   
   171  164  172 1   
   172  164  173 1   
   173  165  166 1   
   174  165  167 1   
   175  174  175 1   
   176  174  179 1   
   177  175  176 1   
   178  175  177 1   
   179  175  178 1   
   180  181  182 1   
   181  181  183 1   
   182  184  185 1   
   183  184  186 1   
   184  187  188 1   
   185  187  189 1   
   186  190  191 1   
   187  190  192 1   
   188  193  194 1   
   189  193  195 1   
@<TRIPOS>SUBSTRUCTURE
     1 MOL         1 TEMP              0 ****  ****    0 ROOT
