@<TRIPOS>MOLECULE
MOL
  181   177     1     0     0
SMALL
resp


@<TRIPOS>ATOM
      1 C1         -0.4780    6.4250    2.7020 c3        1 MOL     -0.468430
      2 C2         -1.6640    6.7670    1.7860 c         1 MOL      0.668224
      3 O1         -1.5290    7.3200    0.6640 o         1 MOL     -0.578259
      4 H1         -0.0650    7.3440    3.1180 hc        1 MOL      0.118518
      5 H2         -0.8190    5.7810    3.5130 hc        1 MOL      0.118518
      6 H3          0.2900    5.9090    2.1250 hc        1 MOL      0.118518
      7 N1         -2.8980    6.5110    2.2490 n         1 MOL     -0.466936
      8 C3         -4.0820    6.4930    1.3640 c3        1 MOL     -0.006163
      9 C4         -4.0690    5.4600    0.1960 c         1 MOL      0.747408
     10 O2         -3.9610    4.3000    0.4430 o         1 MOL     -0.569550
     11 C5         -5.3070    6.2150    2.2770 c3        1 MOL     -0.369950
     12 C6         -6.6060    5.9900    1.4750 c         1 MOL      0.902073
     13 O3         -6.9720    6.9120    0.7470 o         1 MOL     -0.769630
     14 O4         -7.3600    5.1120    1.7680 o         1 MOL     -0.769630
     15 H4         -2.9710    5.9780    3.0980 hn        1 MOL      0.290668
     16 H5         -4.2810    7.4490    0.8900 h1        1 MOL      0.070647
     17 H6         -5.5550    7.0720    2.9050 hc        1 MOL      0.064822
     18 H7         -5.1380    5.4110    2.9960 hc        1 MOL      0.064822
     19 N2         -4.2180    5.7890   -1.1110 n         1 MOL     -0.889580
     20 C7         -4.1460    4.8090   -2.2330 c3        1 MOL      0.786652
     21 C8         -2.8240    3.9840   -2.3410 c         1 MOL      0.309104
     22 O5         -1.7680    4.4730   -1.9710 o         1 MOL     -0.524820
     23 C9         -4.3820    5.6340   -3.4560 c3        1 MOL     -0.433575
     24 H8         -3.9980    6.7560   -1.3270 hn        1 MOL      0.366109
     25 H9         -4.9860    4.1190   -2.1980 h1        1 MOL     -0.079497
     26 H10        -4.3900    5.0750   -4.3980 hc        1 MOL      0.090788
     27 H11        -5.3550    6.1200   -3.4370 hc        1 MOL      0.090788
     28 H12        -3.6050    6.4050   -3.4720 hc        1 MOL      0.090788
     29 N3         -2.7960    2.7610   -2.9370 n         1 MOL     -0.364076
     30 C10        -3.8500    1.8450   -3.2880 c3        1 MOL      0.009130
     31 C11        -4.1680    0.8650   -2.0990 c         1 MOL      0.307429
     32 O6         -3.1820    0.4680   -1.4680 o         1 MOL     -0.379587
     33 C12        -3.4150    1.0320   -4.5620 c3        1 MOL     -0.131956
     34 C13        -1.9250    0.5920   -4.7020 c         1 MOL      0.651222
     35 O7         -1.2540    0.2820   -3.6620 o         1 MOL     -0.660570
     36 O8         -1.4700    0.5140   -5.9160 o         1 MOL     -0.660570
     37 H13        -1.8730    2.3610   -3.0080 hn        1 MOL      0.266506
     38 H14        -4.8090    2.2760   -3.6050 h1        1 MOL      0.057111
     39 H15        -3.5300    1.7660   -5.3660 hc        1 MOL      0.016294
     40 H16        -4.0490    0.1710   -4.7360 hc        1 MOL      0.016294
     41 N4         -5.4350    0.3480   -2.0460 n         1 MOL     -0.271317
     42 C14        -5.9090   -0.5980   -1.0290 c3        1 MOL      0.117946
     43 C15        -7.4340   -0.4900   -0.7420 c         1 MOL      0.510840
     44 O9         -8.0620    0.5170   -1.1210 o         1 MOL     -0.487341
     45 H17        -6.1600    0.6910   -2.6580 hn        1 MOL      0.224477
     46 H18        -5.3910   -0.5870   -0.0670 h1        1 MOL      0.005199
     47 H19        -5.6780   -1.5930   -1.4250 h1        1 MOL      0.005199
     48 N5         -8.0730   -1.4540   -0.0230 n         1 MOL     -0.512162
     49 C16        -7.6070   -2.7820    0.3270 c3        1 MOL      0.132995
     50 C17        -6.4380   -2.7690    1.3610 c         1 MOL      0.640771
     51 O10        -5.9920   -1.8240    1.9540 o         1 MOL     -0.481256
     52 C18        -8.7820   -3.6870    0.8460 c3        1 MOL     -0.310637
     53 C19        -9.2170   -3.3540    2.2420 c         1 MOL      0.693456
     54 N6         -8.9450   -4.1760    3.2130 n         1 MOL     -0.763013
     55 O11        -9.8480   -2.3920    2.5270 o         1 MOL     -0.521965
     56 H20        -9.0490   -1.2640    0.2080 hn        1 MOL      0.313406
     57 H21        -7.2850   -3.2030   -0.6350 h1        1 MOL      0.057378
     58 H22        -8.3700   -4.6930    0.8640 hc        1 MOL      0.073241
     59 H23        -9.6240   -3.6760    0.1460 hc        1 MOL      0.073241
     60 H24        -8.4700   -5.0450    3.0100 hn        1 MOL      0.358732
     61 H25        -9.2830   -3.9110    4.1230 hn        1 MOL      0.358732
     62 N7         -5.8670   -3.9450    1.5640 n         1 MOL     -0.651358
     63 C20        -4.7870   -4.2230    2.4890 c3        1 MOL      0.045877
     64 C21        -3.3560   -4.2940    1.9440 c         1 MOL      0.469587
     65 O12        -2.5130   -3.7480    2.6050 o         1 MOL     -0.542084
     66 H26        -6.1360   -4.7000    0.9560 hn        1 MOL      0.301986
     67 H27        -4.9550   -5.1160    3.1040 h1        1 MOL      0.086218
     68 H28        -4.7750   -3.5050    3.3110 h1        1 MOL      0.086218
     69 N8         -3.1740   -4.8390    0.7910 n         1 MOL     -0.385158
     70 C22        -1.8590   -5.1400    0.2390 c3        1 MOL      0.003447
     71 C23        -0.6790   -4.1550    0.3700 c         1 MOL      0.457540
     72 O13        -0.8050   -3.0020    0.0010 o         1 MOL     -0.581088
     73 C24        -1.9550   -5.7400   -1.1780 c3        1 MOL      0.341625
     74 C25        -0.6280   -6.2650   -1.7190 c3        1 MOL     -0.287202
     75 O14        -2.9900   -6.7640   -1.1590 oh        1 MOL     -0.654193
     76 H29        -3.9660   -5.1680    0.2460 hn        1 MOL      0.241140
     77 H30        -1.5510   -5.9960    0.8450 h1        1 MOL      0.088683
     78 H31        -2.2980   -4.9710   -1.8750 h1        1 MOL     -0.048117
     79 H32        -3.3240   -6.9100   -2.0490 ho        1 MOL      0.401709
     80 H33         0.0170   -5.4870   -2.1300 hc        1 MOL      0.088788
     81 H34        -0.1770   -6.8140   -0.8860 hc        1 MOL      0.088788
     82 H35        -0.7590   -6.9190   -2.5750 hc        1 MOL      0.088788
     83 N9          0.4780   -4.6560    0.8010 n         1 MOL     -0.184439
     84 C26         1.7020   -3.8290    0.9860 c3        1 MOL     -0.236920
     85 C27         2.7090   -3.8970   -0.2080 c         1 MOL      0.307376
     86 O15         3.1320   -4.9230   -0.7000 o         1 MOL     -0.531600
     87 C28         2.4530   -4.3100    2.2960 c3        1 MOL      0.318268
     88 C29         3.7340   -3.4840    2.6140 c3        1 MOL      0.055256
     89 C30         1.4410   -4.3040    3.4710 c3        1 MOL     -0.354208
     90 C31         4.4140   -3.6930    3.9770 c3        1 MOL     -0.205294
     91 H36         0.4500   -5.5960    1.1750 hn        1 MOL      0.225374
     92 H37         1.4010   -2.7920    1.1250 h1        1 MOL      0.221492
     93 H38         2.8130   -5.3340    2.2320 hc        1 MOL     -0.056141
     94 H39         3.4680   -2.4410    2.4510 hc        1 MOL     -0.005573
     95 H40         4.4470   -3.6270    1.8170 hc        1 MOL     -0.005573
     96 H41         0.5530   -4.8760    3.2120 hc        1 MOL      0.076069
     97 H42         1.8050   -4.6760    4.4300 hc        1 MOL      0.076069
     98 H43         1.2550   -3.2330    3.5980 hc        1 MOL      0.076069
     99 H44         4.5110   -4.7260    4.2880 hc        1 MOL      0.043406
    100 H45         5.4180   -3.2680    4.0320 hc        1 MOL      0.043406
    101 H46         3.7320   -3.1760    4.6530 hc        1 MOL      0.043406
    102 N10         3.1880   -2.7350   -0.6800 n         1 MOL     -0.103815
    103 C32         3.9860   -2.6980   -1.9470 c3        1 MOL      0.033734
    104 C33         5.3120   -1.9180   -1.8510 c         1 MOL      0.404072
    105 O16         6.1100   -1.9840   -2.8000 o         1 MOL     -0.556296
    106 C34         3.1800   -2.1460   -3.1590 c3        1 MOL      0.178403
    107 C35         1.7640   -2.7030   -3.2450 c         1 MOL      0.671034
    108 O17         0.9050   -2.0870   -2.5750 o         1 MOL     -0.691240
    109 O18         1.5200   -3.6060   -4.0290 o         1 MOL     -0.691240
    110 H47         2.7300   -1.8850   -0.3690 hn        1 MOL      0.183112
    111 H48         4.2950   -3.7120   -2.2080 h1        1 MOL      0.090346
    112 H49         3.6750   -2.5210   -4.0580 hc        1 MOL     -0.064291
    113 H50         3.2630   -1.0690   -3.1010 hc        1 MOL     -0.064291
    114 N11         5.5740   -1.1990   -0.7800 n         1 MOL     -0.530275
    115 C36         6.7030   -0.2990   -0.7560 c3        1 MOL      0.576064
    116 C37         6.4230    0.9650    0.0290 c         1 MOL      0.131113
    117 O19         7.1080    1.1460    1.0620 o         1 MOL     -0.450676
    118 C38         8.0340   -0.9980   -0.4500 c3        1 MOL     -0.337225
    119 C39         9.1690   -0.1780   -1.0190 ca        1 MOL      0.141109
    120 C40         9.2910   -0.0790   -2.4770 ca        1 MOL     -0.204556
    121 C41        10.0100    0.5760   -0.1760 ca        1 MOL     -0.204556
    122 C42        10.3890    0.6680   -3.0240 ca        1 MOL     -0.111000
    123 C43        11.0440    1.3790   -0.7320 ca        1 MOL     -0.111000
    124 C44        11.2130    1.3690   -2.1230 ca        1 MOL     -0.133910
    125 H51         4.8250   -1.1270   -0.1030 hn        1 MOL      0.246169
    126 H52         6.8460   -0.0060   -1.7940 h1        1 MOL     -0.034189
    127 H53         8.0140   -1.9860   -0.9120 hc        1 MOL      0.102085
    128 H54         8.1320   -1.1830    0.6180 hc        1 MOL      0.102085
    129 H55         8.5980   -0.5420   -3.1570 ha        1 MOL      0.153530
    130 H56         9.7380    0.6330    0.8630 ha        1 MOL      0.153530
    131 H57        10.5060    0.8650   -4.0750 ha        1 MOL      0.105445
    132 H58        11.7260    1.9320   -0.0850 ha        1 MOL      0.105445
    133 H59        12.0010    2.0330   -2.4390 ha        1 MOL      0.083608
    134 N12         5.5520    1.8670   -0.4300 n         1 MOL      0.025813
    135 C45         5.2310    3.0990    0.3740 c3        1 MOL     -0.012885
    136 C46         4.8420    3.0320    1.8560 c         1 MOL      0.353015
    137 O20         5.3050    3.8230    2.6640 o         1 MOL     -0.509455
    138 C47         4.1980    3.8500   -0.4980 c3        1 MOL      0.142119
    139 C48         4.5670    3.4180   -1.9730 c3        1 MOL     -0.385424
    140 C49         4.9640    1.9680   -1.7660 c3        1 MOL      0.000293
    141 H60         6.1380    3.7050    0.2920 h1        1 MOL      0.056182
    142 H61         3.1860    3.6160   -0.1430 hc        1 MOL     -0.003332
    143 H62         4.3020    4.9180   -0.3020 hc        1 MOL     -0.003332
    144 H63         3.6450    3.3350   -2.5490 hc        1 MOL      0.125532
    145 H64         5.3660    4.0980   -2.2740 hc        1 MOL      0.125532
    146 H65         4.0440    1.3780   -1.8350 h1        1 MOL      0.086252
    147 H66         5.6750    1.7070   -2.5510 h1        1 MOL      0.086252
    148 N13         4.1410    1.9320    2.2770 n         1 MOL     -0.063345
    149 C50         3.7460    1.6480    3.6550 c3        1 MOL     -0.382459
    150 C51         4.9020    1.3970    4.6140 c         1 MOL      0.595972
    151 O21         4.7490    1.3600    5.7890 o         1 MOL     -0.581348
    152 C52         2.8380    0.4100    3.6590 c3        1 MOL      0.106468
    153 C53         1.6880    0.4580    2.6590 c3        1 MOL     -0.300907
    154 C54         2.0430   -0.1500    1.2760 c         1 MOL      0.616249
    155 O22         1.1120   -0.4440    0.5100 o         1 MOL     -0.690120
    156 O23         3.1790   -0.2180    0.7680 o         1 MOL     -0.690120
    157 H67         3.8920    1.2980    1.5300 hn        1 MOL      0.198936
    158 H68         3.0190    2.3300    4.1140 h1        1 MOL      0.155098
    159 H69         2.3850    0.2950    4.6470 hc        1 MOL      0.018740
    160 H70         3.3770   -0.5290    3.5070 hc        1 MOL      0.018740
    161 H71         1.3040    1.4590    2.4660 hc        1 MOL      0.107274
    162 H72         0.8990   -0.2180    2.9820 hc        1 MOL      0.107274
    163 N14         6.0960    1.1740    4.0760 n         1 MOL     -0.158658
    164 C55         7.4300    1.0310    4.6770 c3        1 MOL     -0.138417
    165 H73         7.7700    2.0010    5.0400 h1        1 MOL      0.065980
    166 H74         7.3810    0.3300    5.5090 h1        1 MOL      0.065980
    167 H75         8.1290    0.6580    3.9280 h1        1 MOL      0.065980
    168 H76         6.1150    1.1890    3.0750 hn        1 MOL      0.134452
    169 Ca1        -0.8030   -0.7670   -1.2370 Ca        1 MOL      1.622218
    170 O24        -2.6880   -2.4610   -2.7480 oh        1 MOL     -0.809438
    171 H77        -2.2700   -3.2630   -3.0730 ho        1 MOL      0.404959
    172 H78        -3.6260   -2.6540   -2.7660 ho        1 MOL      0.404959
    173 O25         1.5690    0.8140   -1.9760 oh        1 MOL     -0.809438
    174 H79         1.2980    1.7370   -1.9710 ho        1 MOL      0.404959
    175 H80         1.8110    0.6420   -1.0660 ho        1 MOL      0.404959
    176 O26        -0.7530    1.7450   -0.4360 oh        1 MOL     -0.809438
    177 H81        -0.3090    2.4730   -0.8700 ho        1 MOL      0.404959
    178 H82        -1.4050    2.1600    0.1270 ho        1 MOL      0.404959
    179 O27        -2.3980   -0.9510    0.9900 oh        1 MOL     -0.809438
    180 H83        -3.2460   -0.5110    1.1150 ho        1 MOL      0.404959
    181 H84        -2.3030   -1.5080    1.7620 ho        1 MOL      0.404959
@<TRIPOS>BOND
     1    1    2 1   
     2    1    4 1   
     3    1    5 1   
     4    1    6 1   
     5    2    3 2   
     6    2    7 1   
     7    7    8 1   
     8    7   15 1   
     9    8    9 1   
    10    8   11 1   
    11    8   16 1   
    12    9   10 2   
    13    9   19 1   
    14   11   12 1   
    15   11   17 1   
    16   11   18 1   
    17   12   13 1   
    18   12   14 1   
    19   19   20 1   
    20   19   24 1   
    21   20   21 1   
    22   20   23 1   
    23   20   25 1   
    24   21   22 2   
    25   21   29 1   
    26   23   26 1   
    27   23   27 1   
    28   23   28 1   
    29   29   30 1   
    30   29   37 1   
    31   30   31 1   
    32   30   33 1   
    33   30   38 1   
    34   31   32 2   
    35   31   41 1   
    36   33   34 1   
    37   33   39 1   
    38   33   40 1   
    39   34   35 1   
    40   34   36 1   
    41   41   42 1   
    42   41   45 1   
    43   42   43 1   
    44   42   46 1   
    45   42   47 1   
    46   43   44 2   
    47   43   48 1   
    48   48   49 1   
    49   48   56 1   
    50   49   50 1   
    51   49   52 1   
    52   49   57 1   
    53   50   51 2   
    54   50   62 1   
    55   52   53 1   
    56   52   58 1   
    57   52   59 1   
    58   53   54 1   
    59   53   55 2   
    60   54   60 1   
    61   54   61 1   
    62   62   63 1   
    63   62   66 1   
    64   63   64 1   
    65   63   67 1   
    66   63   68 1   
    67   64   65 2   
    68   64   69 1   
    69   69   70 1   
    70   69   76 1   
    71   70   71 1   
    72   70   73 1   
    73   70   77 1   
    74   71   72 2   
    75   71   83 1   
    76   73   74 1   
    77   73   75 1   
    78   73   78 1   
    79   74   80 1   
    80   74   81 1   
    81   74   82 1   
    82   75   79 1   
    83   83   84 1   
    84   83   91 1   
    85   84   85 1   
    86   84   87 1   
    87   84   92 1   
    88   85   86 2   
    89   85  102 1   
    90   87   88 1   
    91   87   89 1   
    92   87   93 1   
    93   88   90 1   
    94   88   94 1   
    95   88   95 1   
    96   89   96 1   
    97   89   97 1   
    98   89   98 1   
    99   90   99 1   
   100   90  100 1   
   101   90  101 1   
   102  102  103 1   
   103  102  110 1   
   104  103  104 1   
   105  103  106 1   
   106  103  111 1   
   107  104  105 2   
   108  104  114 1   
   109  106  107 1   
   110  106  112 1   
   111  106  113 1   
   112  107  108 1   
   113  107  109 1   
   114  114  115 1   
   115  114  125 1   
   116  115  116 1   
   117  115  118 1   
   118  115  126 1   
   119  116  117 2   
   120  116  134 1   
   121  118  119 1   
   122  118  127 1   
   123  118  128 1   
   124  119  120 ar  
   125  119  121 ar  
   126  120  122 ar  
   127  120  129 1   
   128  121  123 ar  
   129  121  130 1   
   130  122  124 ar  
   131  122  131 1   
   132  123  124 ar  
   133  123  132 1   
   134  124  133 1   
   135  134  135 1   
   136  134  140 1   
   137  135  136 1   
   138  135  138 1   
   139  135  141 1   
   140  136  137 2   
   141  136  148 1   
   142  138  139 1   
   143  138  142 1   
   144  138  143 1   
   145  139  140 1   
   146  139  144 1   
   147  139  145 1   
   148  140  146 1   
   149  140  147 1   
   150  148  149 1   
   151  148  157 1   
   152  149  150 1   
   153  149  152 1   
   154  149  158 1   
   155  150  151 2   
   156  150  163 1   
   157  152  153 1   
   158  152  159 1   
   159  152  160 1   
   160  153  154 1   
   161  153  161 1   
   162  153  162 1   
   163  154  155 1   
   164  154  156 1   
   165  163  164 1   
   166  163  168 1   
   167  164  165 1   
   168  164  166 1   
   169  164  167 1   
   170  170  171 1   
   171  170  172 1   
   172  173  174 1   
   173  173  175 1   
   174  176  177 1   
   175  176  178 1   
   176  179  180 1   
   177  179  181 1   
@<TRIPOS>SUBSTRUCTURE
     1 MOL         1 TEMP              0 ****  ****    0 ROOT
