@<TRIPOS>MOLECULE
MOL
  192   187     1     0     0
SMALL
resp


@<TRIPOS>ATOM
      1 C1          9.4200    1.1710    1.6390 c3        1 MOL     -0.340124
      2 C2          8.1350    0.9980    0.7710 c         1 MOL      0.599753
      3 O1          7.3110    1.8940    0.6080 o         1 MOL     -0.515802
      4 H1          9.4840    2.2000    1.9910 hc        1 MOL      0.091065
      5 H2          9.3750    0.4970    2.4940 hc        1 MOL      0.091065
      6 H3         10.2990    0.9380    1.0370 hc        1 MOL      0.091065
      7 N1          8.1430   -0.1570    0.0560 n         1 MOL     -0.598868
      8 C3          7.2910   -0.3920   -1.1010 c3        1 MOL      0.219261
      9 C4          6.6360   -1.8150   -1.2380 c         1 MOL      0.494452
     10 O2          6.0990   -2.2390   -2.2880 o         1 MOL     -0.459345
     11 C5          8.0600   -0.0370   -2.3760 c3        1 MOL     -0.172884
     12 C6          9.3820   -0.7500   -2.6530 c         1 MOL      0.679197
     13 O3         10.4610   -0.2120   -2.2560 o         1 MOL     -0.657765
     14 O4          9.3580   -1.9140   -3.1220 o         1 MOL     -0.657765
     15 H4          8.9220   -0.7910    0.1430 hn        1 MOL      0.326874
     16 H5          6.4550    0.3130   -1.0560 h1        1 MOL      0.013034
     17 H6          8.2320    1.0350   -2.2820 hc        1 MOL      0.044845
     18 H7          7.4640   -0.1180   -3.2840 hc        1 MOL      0.044845
     19 N2          6.6010   -2.5440   -0.1360 n         1 MOL     -0.461226
     20 C7          5.9360   -3.9380   -0.0200 c3        1 MOL      0.300525
     21 C8          4.4740   -4.1120   -0.2920 c         1 MOL      0.411022
     22 O5          4.0850   -5.0560   -0.9980 o         1 MOL     -0.512458
     23 C9          6.2190   -4.3780    1.4790 c3        1 MOL     -0.343638
     24 C10         7.7410   -4.4510    1.9650 c3        1 MOL      0.063061
     25 C11         8.0050   -4.8220    3.4350 c3        1 MOL     -0.188511
     26 C12         9.5080   -4.7950    3.6590 c3        1 MOL      0.061432
     27 N3          9.8250   -4.3910    5.0410 n4        1 MOL     -0.277124
     28 H8          7.2780   -2.2420    0.5410 hn        1 MOL      0.185539
     29 H9          6.3900   -4.6790   -0.6700 h1        1 MOL      0.057057
     30 H10         5.7480   -5.3650    1.5230 hc        1 MOL      0.095018
     31 H11         5.7210   -3.6990    2.1730 hc        1 MOL      0.095018
     32 H12         8.2300   -3.5120    1.6780 hc        1 MOL      0.032784
     33 H13         8.2460   -5.2140    1.3700 hc        1 MOL      0.032784
     34 H14         7.7630   -5.8660    3.6140 hc        1 MOL      0.099219
     35 H15         7.4780   -4.1180    4.0750 hc        1 MOL      0.099219
     36 H16        10.0180   -4.0410    3.0660 hx        1 MOL      0.080216
     37 H17         9.9360   -5.7770    3.4500 hx        1 MOL      0.080216
     38 H18         9.2700   -3.5940    5.3140 hn        1 MOL      0.250101
     39 H19         9.8050   -5.1230    5.7350 hn        1 MOL      0.250101
     40 H20        10.7800   -4.0550    5.0280 hn        1 MOL      0.250101
     41 N4          3.5020   -3.2640    0.0620 n         1 MOL     -0.407805
     42 C13         3.6170   -1.8640    0.4510 c3        1 MOL      0.107302
     43 C14         3.6680   -0.8830   -0.7050 c         1 MOL      0.377070
     44 O6          3.2690   -1.2370   -1.7910 o         1 MOL     -0.379532
     45 C15         2.4830   -1.5330    1.4490 c3        1 MOL     -0.248789
     46 C16         1.0950   -1.9870    0.9950 c         1 MOL      0.664779
     47 O7          0.6360   -1.6530   -0.1200 o         1 MOL     -0.677313
     48 O8          0.3600   -2.5850    1.8250 o         1 MOL     -0.677313
     49 H21         2.6130   -3.7080   -0.1340 hn        1 MOL      0.342808
     50 H22         4.4810   -1.7170    1.1050 h1        1 MOL      0.023115
     51 H23         2.3710   -0.4540    1.5640 hc        1 MOL      0.067067
     52 H24         2.6250   -1.9890    2.4250 hc        1 MOL      0.067067
     53 N5          4.0620    0.3610   -0.3950 n         1 MOL     -0.497372
     54 C17         4.0560    1.5240   -1.2440 c3        1 MOL      0.149068
     55 C18         2.7890    2.2170   -1.3840 c         1 MOL      0.617595
     56 O9          1.7160    1.8180   -0.8980 o         1 MOL     -0.687167
     57 H25         4.1200    0.5840    0.5890 hn        1 MOL      0.296441
     58 H26         4.4100    1.3130   -2.2480 h1        1 MOL      0.054377
     59 H27         4.8040    2.1610   -0.7720 h1        1 MOL      0.054377
     60 N6          2.8260    3.2600   -2.1860 n         1 MOL     -0.495368
     61 C19         1.8270    4.2740   -2.6010 c3        1 MOL      0.255709
     62 C20         2.3220    5.7310   -2.7140 c         1 MOL      0.358551
     63 O10         3.5770    5.9970   -2.6720 o         1 MOL     -0.511608
     64 C21         1.2810    3.7790   -4.0230 c3        1 MOL     -0.400155
     65 C22         0.7290    2.3730   -3.9650 c         1 MOL      0.702840
     66 O11        -0.2700    2.0850   -3.2440 o         1 MOL     -0.648424
     67 O12         1.2620    1.5100   -4.6450 o         1 MOL     -0.648424
     68 H28         3.7430    3.4380   -2.5540 hn        1 MOL      0.270420
     69 H29         1.1030    4.3740   -1.8010 h1        1 MOL      0.070442
     70 H30         2.1590    3.7870   -4.6730 hc        1 MOL      0.124848
     71 H31         0.5540    4.4780   -4.4170 hc        1 MOL      0.124848
     72 N7          1.4560    6.7760   -2.8820 n         1 MOL     -0.343119
     73 C23         0.0180    6.6770   -2.8220 c3        1 MOL     -0.247247
     74 C24        -0.5250    6.4680   -1.4390 c         1 MOL      0.747616
     75 O13        -0.0480    7.0340   -0.5100 o         1 MOL     -0.535138
     76 H32         1.9120    7.6590   -3.0510 hn        1 MOL      0.314525
     77 H33        -0.3900    6.0210   -3.5830 h1        1 MOL      0.109973
     78 H34        -0.3250    7.7030   -2.9870 h1        1 MOL      0.109973
     79 N8         -1.6200    5.7220   -1.3800 n         1 MOL     -0.641204
     80 C25        -2.1610    5.2300   -0.1020 c3        1 MOL     -0.012335
     81 C26        -1.4200    4.0100    0.5160 c         1 MOL      0.956098
     82 O14        -1.0210    3.1340   -0.2410 o         1 MOL     -0.839021
     83 C27        -3.6840    4.9690   -0.1560 c3        1 MOL      0.471525
     84 C28        -4.1980    4.6590    1.2780 c3        1 MOL     -0.365148
     85 O15        -4.0310    3.8670   -0.9500 oh        1 MOL     -0.651960
     86 H35        -2.0330    5.3660   -2.2430 hn        1 MOL      0.282389
     87 H36        -2.0420    6.1410    0.4870 h1        1 MOL      0.039521
     88 H37        -4.1770    5.8790   -0.4940 h1        1 MOL     -0.018879
     89 H38        -4.2720    4.1830   -1.8220 ho        1 MOL      0.412781
     90 H39        -3.7750    5.3670    1.9910 hc        1 MOL      0.077909
     91 H40        -5.2830    4.6530    1.2510 hc        1 MOL      0.077909
     92 H41        -3.8100    3.6520    1.4560 hc        1 MOL      0.077909
     93 N9         -1.1210    4.0290    1.8120 n         1 MOL     -0.603854
     94 C29        -0.3290    3.0890    2.5910 c3        1 MOL      0.002296
     95 C30        -0.7830    1.6240    2.3290 c         1 MOL      0.594220
     96 O16        -0.4680    1.0350    1.3310 o         1 MOL     -0.520802
     97 C31         1.1880    3.3050    2.2550 c3        1 MOL      0.261515
     98 C32         1.7980    4.7790    2.2810 c3        1 MOL     -0.013528
     99 C33         1.9890    2.5010    3.2620 c3        1 MOL     -0.446501
    100 C34         2.0130    5.4460    3.6800 c3        1 MOL     -0.165635
    101 H42        -1.5040    4.7580    2.4110 hn        1 MOL      0.290227
    102 H43        -0.4790    3.4540    3.6030 h1        1 MOL      0.059173
    103 H44         1.3220    2.9770    1.2270 hc        1 MOL      0.066737
    104 H45         1.1540    5.3850    1.6480 hc        1 MOL      0.005664
    105 H46         2.7420    4.5460    1.7950 hc        1 MOL      0.005664
    106 H47         2.0230    1.4680    2.9230 hc        1 MOL      0.105883
    107 H48         3.0260    2.8080    3.3610 hc        1 MOL      0.105883
    108 H49         1.5160    2.5560    4.2450 hc        1 MOL      0.105883
    109 H50         1.2250    5.2600    4.4110 hc        1 MOL      0.042412
    110 H51         2.9040    5.0180    4.1420 hc        1 MOL      0.042412
    111 H52         2.0980    6.5290    3.5890 hc        1 MOL      0.042412
    112 N10        -1.6650    1.1230    3.2590 n         1 MOL     -0.524139
    113 C35        -2.3620   -0.2530    3.1730 c3        1 MOL      0.068623
    114 C36        -3.8620   -0.3460    3.2480 c         1 MOL      0.465550
    115 O17        -4.3680   -1.4050    3.4370 o         1 MOL     -0.527532
    116 C37        -1.6540   -1.2580    4.0560 c3        1 MOL      0.253283
    117 C38        -1.9280   -0.8610    5.5050 c3        1 MOL     -0.401950
    118 O18        -0.1910   -1.1930    4.0700 oh        1 MOL     -0.548832
    119 H53        -1.9430    1.7540    3.9860 hn        1 MOL      0.291179
    120 H54        -2.2470   -0.6480    2.1670 h1        1 MOL      0.082728
    121 H55        -1.9730   -2.2730    3.8430 h1        1 MOL      0.072087
    122 H56         0.0370   -1.6870    3.2870 ho        1 MOL      0.330640
    123 H57        -2.9800   -1.0160    5.7470 hc        1 MOL      0.097389
    124 H58        -1.3970   -1.5650    6.1590 hc        1 MOL      0.097389
    125 H59        -1.4980    0.1110    5.7040 hc        1 MOL      0.097389
    126 N11        -4.6240    0.7510    3.1420 n         1 MOL     -0.232429
    127 C39        -6.0940    0.7930    3.0780 c3        1 MOL      0.037441
    128 C40        -6.6530   -0.0120    1.9180 c         1 MOL      0.409522
    129 O19        -6.9680    0.5060    0.7900 o         1 MOL     -0.535327
    130 C41        -6.5420    2.3140    3.0260 c3        1 MOL      0.395233
    131 C42        -8.0830    2.6030    3.2630 c3        1 MOL     -0.331074
    132 O20        -5.8030    2.9730    3.9780 oh        1 MOL     -0.618158
    133 H60        -4.1290    1.6210    3.2620 hn        1 MOL      0.153851
    134 H61        -6.4610    0.2800    3.9630 h1        1 MOL      0.056785
    135 H62        -6.2400    2.6960    2.0530 h1        1 MOL     -0.003554
    136 H63        -5.8680    3.9080    3.8110 ho        1 MOL      0.390512
    137 H64        -8.2820    3.6080    2.8760 hc        1 MOL      0.083704
    138 H65        -8.6190    2.0520    2.4950 hc        1 MOL      0.083704
    139 H66        -8.4550    2.4230    4.2720 hc        1 MOL      0.083704
    140 N12        -6.7290   -1.3160    2.1290 n         1 MOL     -0.538234
    141 C43        -6.7060   -2.3370    1.0390 c3        1 MOL      0.201425
    142 C44        -5.3330   -2.2640    0.2540 c         1 MOL      0.615773
    143 O21        -4.7250   -1.2290    0.1250 o         1 MOL     -0.473745
    144 C45        -8.0380   -2.3540    0.2720 c3        1 MOL     -0.275942
    145 C46        -8.0020   -3.1730   -1.0160 c3        1 MOL     -0.052572
    146 C47        -9.3410   -3.6920   -1.5660 c3        1 MOL     -0.108955
    147 C48       -10.2450   -2.4430   -1.7700 c3        1 MOL      0.118479
    148 N13       -11.5250   -2.7930   -2.5430 n4        1 MOL     -0.350866
    149 H67        -6.4760   -1.6890    3.0290 hn        1 MOL      0.332004
    150 H68        -6.4920   -3.3210    1.4720 h1        1 MOL      0.020201
    151 H69        -8.3980   -1.3700   -0.0420 hc        1 MOL      0.096366
    152 H70        -8.7320   -2.7910    0.9860 hc        1 MOL      0.096366
    153 H71        -7.3550   -4.0470   -0.8890 hc        1 MOL      0.067466
    154 H72        -7.5310   -2.5260   -1.7600 hc        1 MOL      0.067466
    155 H73        -9.7650   -4.4260   -0.8840 hc        1 MOL      0.059466
    156 H74        -9.1820   -4.2190   -2.5110 hc        1 MOL      0.059466
    157 H75        -9.7030   -1.6540   -2.2920 hx        1 MOL      0.079342
    158 H76       -10.5250   -2.0190   -0.8090 hx        1 MOL      0.079342
    159 H77       -12.0900   -3.5780   -2.2510 hn        1 MOL      0.268245
    160 H78       -12.2790   -2.1470   -2.4270 hn        1 MOL      0.268245
    161 H79       -11.2650   -2.8990   -3.5170 hn        1 MOL      0.268245
    162 N14        -5.0210   -3.3020   -0.4500 n         1 MOL     -0.628209
    163 C49        -3.8890   -3.2020   -1.4930 c3        1 MOL      0.349876
    164 C50        -2.5030   -2.8170   -0.9120 c         1 MOL      0.258395
    165 O22        -1.8870   -1.8970   -1.3880 o         1 MOL     -0.454510
    166 C51        -3.9690   -4.4320   -2.3520 c3        1 MOL      0.000161
    167 C52        -5.1880   -4.7030   -3.2520 c3        1 MOL     -0.289766
    168 C53        -5.0200   -6.0650   -3.9390 c         1 MOL      0.712385
    169 O23        -4.5710   -6.1380   -5.1170 o         1 MOL     -0.652620
    170 O24        -5.3480   -7.0740   -3.3530 o         1 MOL     -0.652620
    171 H80        -5.4540   -4.1940   -0.2650 hn        1 MOL      0.335522
    172 H81        -4.0860   -2.3370   -2.1260 h1        1 MOL      0.018123
    173 H82        -3.8940   -5.3220   -1.7240 hc        1 MOL      0.041230
    174 H83        -3.1230   -4.3730   -3.0310 hc        1 MOL      0.041230
    175 H84        -5.2750   -3.8790   -3.9540 hc        1 MOL      0.033543
    176 H85        -6.0870   -4.6450   -2.6480 hc        1 MOL      0.033543
    177 N15        -1.9870   -3.5360    0.1470 n         1 MOL     -0.286420
    178 C54        -2.4810   -4.6930    0.8250 c3        1 MOL     -0.029488
    179 H86        -2.9030   -5.3870    0.0990 h1        1 MOL      0.031713
    180 H87        -1.6640   -5.1780    1.3590 h1        1 MOL      0.031713
    181 H88        -3.2530   -4.3970    1.5350 h1        1 MOL      0.031713
    182 H89        -1.1280   -3.1220    0.4740 hn        1 MOL      0.330626
    183 Ca1        -0.6480    0.6080   -1.1930 Ca        1 MOL      1.801376
    184 O25        -3.2650    0.9170   -0.2500 oh        1 MOL     -0.883052
    185 H90        -3.9790    0.3000   -0.4150 ho        1 MOL      0.409898
    186 H91        -3.5960    1.7630   -0.5480 ho        1 MOL      0.409898
    187 O26         0.9510   -0.5370   -3.0370 oh        1 MOL     -0.883052
    188 H92         1.1060    0.0560   -3.7720 ho        1 MOL      0.409898
    189 H93         1.8210   -0.8620   -2.8070 ho        1 MOL      0.409898
    190 O27        -2.4740    0.2760   -3.3840 oh        1 MOL     -0.883052
    191 H94        -3.0320   -0.3530   -3.8350 ho        1 MOL      0.409898
    192 H95        -2.5310    1.0800   -3.9020 ho        1 MOL      0.409898
@<TRIPOS>BOND
     1    1    2 1   
     2    1    4 1   
     3    1    5 1   
     4    1    6 1   
     5    2    3 2   
     6    2    7 1   
     7    7    8 1   
     8    7   15 1   
     9    8    9 1   
    10    8   11 1   
    11    8   16 1   
    12    9   10 2   
    13    9   19 1   
    14   11   12 1   
    15   11   17 1   
    16   11   18 1   
    17   12   13 1   
    18   12   14 1   
    19   19   20 1   
    20   19   28 1   
    21   20   21 1   
    22   20   23 1   
    23   20   29 1   
    24   21   22 2   
    25   21   41 1   
    26   23   24 1   
    27   23   30 1   
    28   23   31 1   
    29   24   25 1   
    30   24   32 1   
    31   24   33 1   
    32   25   26 1   
    33   25   34 1   
    34   25   35 1   
    35   26   27 1   
    36   26   36 1   
    37   26   37 1   
    38   27   38 1   
    39   27   39 1   
    40   27   40 1   
    41   41   42 1   
    42   41   49 1   
    43   42   43 1   
    44   42   45 1   
    45   42   50 1   
    46   43   44 2   
    47   43   53 1   
    48   45   46 1   
    49   45   51 1   
    50   45   52 1   
    51   46   47 1   
    52   46   48 1   
    53   53   54 1   
    54   53   57 1   
    55   54   55 1   
    56   54   58 1   
    57   54   59 1   
    58   55   56 2   
    59   55   60 1   
    60   60   61 1   
    61   60   68 1   
    62   61   62 1   
    63   61   64 1   
    64   61   69 1   
    65   62   63 2   
    66   62   72 1   
    67   64   65 1   
    68   64   70 1   
    69   64   71 1   
    70   65   66 1   
    71   65   67 1   
    72   72   73 1   
    73   72   76 1   
    74   73   74 1   
    75   73   77 1   
    76   73   78 1   
    77   74   75 2   
    78   74   79 1   
    79   79   80 1   
    80   79   86 1   
    81   80   81 1   
    82   80   83 1   
    83   80   87 1   
    84   81   82 2   
    85   81   93 1   
    86   83   84 1   
    87   83   85 1   
    88   83   88 1   
    89   84   90 1   
    90   84   91 1   
    91   84   92 1   
    92   85   89 1   
    93   93   94 1   
    94   93  101 1   
    95   94   95 1   
    96   94   97 1   
    97   94  102 1   
    98   95   96 2   
    99   95  112 1   
   100   97   98 1   
   101   97   99 1   
   102   97  103 1   
   103   98  100 1   
   104   98  104 1   
   105   98  105 1   
   106   99  106 1   
   107   99  107 1   
   108   99  108 1   
   109  100  109 1   
   110  100  110 1   
   111  100  111 1   
   112  112  113 1   
   113  112  119 1   
   114  113  114 1   
   115  113  116 1   
   116  113  120 1   
   117  114  115 2   
   118  114  126 1   
   119  116  117 1   
   120  116  118 1   
   121  116  121 1   
   122  117  123 1   
   123  117  124 1   
   124  117  125 1   
   125  118  122 1   
   126  126  127 1   
   127  126  133 1   
   128  127  128 1   
   129  127  130 1   
   130  127  134 1   
   131  128  129 2   
   132  128  140 1   
   133  130  131 1   
   134  130  132 1   
   135  130  135 1   
   136  131  137 1   
   137  131  138 1   
   138  131  139 1   
   139  132  136 1   
   140  140  141 1   
   141  140  149 1   
   142  141  142 1   
   143  141  144 1   
   144  141  150 1   
   145  142  143 2   
   146  142  162 1   
   147  144  145 1   
   148  144  151 1   
   149  144  152 1   
   150  145  146 1   
   151  145  153 1   
   152  145  154 1   
   153  146  147 1   
   154  146  155 1   
   155  146  156 1   
   156  147  148 1   
   157  147  157 1   
   158  147  158 1   
   159  148  159 1   
   160  148  160 1   
   161  148  161 1   
   162  162  163 1   
   163  162  171 1   
   164  163  164 1   
   165  163  166 1   
   166  163  172 1   
   167  164  165 2   
   168  164  177 1   
   169  166  167 1   
   170  166  173 1   
   171  166  174 1   
   172  167  168 1   
   173  167  175 1   
   174  167  176 1   
   175  168  169 1   
   176  168  170 1   
   177  177  178 1   
   178  177  182 1   
   179  178  179 1   
   180  178  180 1   
   181  178  181 1   
   182  184  185 1   
   183  184  186 1   
   184  187  188 1   
   185  187  189 1   
   186  190  191 1   
   187  190  192 1   
@<TRIPOS>SUBSTRUCTURE
     1 MOL         1 TEMP              0 ****  ****    0 ROOT
