@<TRIPOS>MOLECULE
MOL
  189   185     1     0     0
SMALL
resp


@<TRIPOS>ATOM
      1 C1          5.5040    3.7700   -3.8920 c3        1 MOL     -0.467500
      2 C2          6.0830    2.9780   -2.7620 c         1 MOL      0.757887
      3 O1          5.2990    2.7820   -1.8170 o         1 MOL     -0.629328
      4 H1          5.6810    4.8310   -3.7190 hc        1 MOL      0.116218
      5 H2          5.9770    3.4710   -4.8270 hc        1 MOL      0.116218
      6 H3          4.4310    3.5860   -3.9530 hc        1 MOL      0.116218
      7 N1          7.2810    2.4770   -2.9090 n         1 MOL     -0.629918
      8 C3          7.9050    1.5260   -1.9370 c3        1 MOL      0.006121
      9 C4          6.9450    0.4030   -1.5490 c         1 MOL      0.497840
     10 O2          6.3120    0.4150   -0.4810 o         1 MOL     -0.615832
     11 C5          8.5730    2.2100   -0.6760 c3        1 MOL      0.003150
     12 C6          7.8600    3.4140    0.0230 c         1 MOL      0.734032
     13 O3          6.9300    3.1950    0.8920 o         1 MOL     -0.736822
     14 O4          8.3280    4.5750   -0.1770 o         1 MOL     -0.736822
     15 H4          7.8060    2.7130   -3.7290 hn        1 MOL      0.358185
     16 H5          8.7760    1.1030   -2.4510 h1        1 MOL      0.061388
     17 H6          9.5320    2.6590   -0.9370 hc        1 MOL      0.004250
     18 H7          8.9250    1.5540    0.1330 hc        1 MOL      0.004250
     19 N2          6.7760   -0.5030   -2.5220 n         1 MOL     -0.333055
     20 C7          5.8510   -1.6470   -2.4720 c3        1 MOL      0.025378
     21 C8          6.3280   -2.6820   -1.4340 c         1 MOL      0.322161
     22 O5          6.6600   -3.8150   -1.8160 o         1 MOL     -0.554121
     23 C9          4.3600   -1.4150   -2.2830 c3        1 MOL      0.141428
     24 C10         3.4830   -2.5930   -2.8470 c3        1 MOL      0.016191
     25 C11         3.9470   -0.1100   -2.7210 c3        1 MOL     -0.196984
     26 C12         3.2540   -2.6850   -4.3590 c3        1 MOL     -0.092090
     27 H8          7.1600   -0.2280   -3.4200 hn        1 MOL      0.254488
     28 H9          5.9820   -2.0710   -3.4700 h1        1 MOL      0.045688
     29 H10         4.2260   -1.3680   -1.1960 hc        1 MOL     -0.008573
     30 H11         2.5240   -2.5900   -2.3380 hc        1 MOL      0.023812
     31 H12         3.9290   -3.5520   -2.6070 hc        1 MOL      0.023812
     32 H13         4.5060    0.1310   -3.6210 hc        1 MOL      0.038622
     33 H14         2.9200   -0.1850   -3.0890 hc        1 MOL      0.038622
     34 H15         3.9910    0.6790   -1.9620 hc        1 MOL      0.038622
     35 H16         2.6610   -1.9070   -4.8280 hc        1 MOL      0.006986
     36 H17         4.2270   -2.6610   -4.8470 hc        1 MOL      0.006986
     37 H18         2.8960   -3.6850   -4.6150 hc        1 MOL      0.006986
     38 N3          6.2780   -2.4140   -0.1470 n         1 MOL      0.016715
     39 C13         6.9930   -3.2830    0.8830 c3        1 MOL     -0.033106
     40 C14         6.1650   -4.4770    1.3400 c         1 MOL      0.605230
     41 O6          6.7490   -5.5480    1.5140 o         1 MOL     -0.599716
     42 C15         7.4960   -2.4280    2.0400 c3        1 MOL     -0.074199
     43 C16         8.4310   -1.3110    1.6770 c         1 MOL      0.717386
     44 O7          8.3800   -0.2580    2.4200 o         1 MOL     -0.704517
     45 O8          9.2930   -1.5220    0.7730 o         1 MOL     -0.704517
     46 H19         6.1060   -1.4660    0.1630 hn        1 MOL      0.041474
     47 H20         7.8390   -3.7610    0.3910 h1        1 MOL      0.073386
     48 H21         8.0840   -3.0550    2.7210 hc        1 MOL      0.037865
     49 H22         6.6910   -2.0200    2.6500 hc        1 MOL      0.037865
     50 N4          4.8390   -4.4430    1.5890 n         1 MOL     -0.617847
     51 C17         3.8530   -3.3450    1.7080 c3        1 MOL      0.209683
     52 C18         2.6490   -3.6810    2.5800 c         1 MOL      0.731697
     53 O9          2.4070   -4.8830    2.7440 o         1 MOL     -0.616337
     54 H23         4.5680   -5.3020    2.0450 hn        1 MOL      0.323422
     55 H24         3.4650   -2.9860    0.7460 h1        1 MOL     -0.015870
     56 H25         4.3530   -2.5030    2.1830 h1        1 MOL     -0.015870
     57 N5          1.9740   -2.6290    3.1500 n         1 MOL     -0.556224
     58 C19         2.1840   -1.2060    3.1300 c3        1 MOL      0.066647
     59 C20         2.1840   -0.5640    1.6860 c         1 MOL      0.509964
     60 O10         3.2680   -0.1570    1.2690 o         1 MOL     -0.501190
     61 C21         3.3840   -0.8050    4.0460 c3        1 MOL     -0.511067
     62 C22         3.4360   -1.6280    5.3620 c         1 MOL      0.799484
     63 O11         2.4090   -1.5790    6.1270 o         1 MOL     -0.725938
     64 O12         4.4200   -2.3120    5.6340 o         1 MOL     -0.725938
     65 H26         1.2050   -2.9110    3.7400 hn        1 MOL      0.291279
     66 H27         1.3450   -0.7300    3.6430 h1        1 MOL      0.085793
     67 H28         3.2030    0.2320    4.3130 hc        1 MOL      0.117201
     68 H29         4.3510   -0.9190    3.5470 hc        1 MOL      0.117201
     69 N6          1.0230   -0.3940    0.9900 n         1 MOL     -0.471167
     70 C23        -0.2710   -1.1170    1.1690 c3        1 MOL      0.122326
     71 C24        -0.3210   -2.4020    0.3620 c         1 MOL      0.408821
     72 O13         0.6910   -2.6780   -0.3050 o         1 MOL     -0.479129
     73 H30         1.0350    0.2680    0.2350 hn        1 MOL      0.260394
     74 H31        -1.0950   -0.4970    0.8330 h1        1 MOL      0.022985
     75 H32        -0.4490   -1.3300    2.2300 h1        1 MOL      0.022985
     76 N7         -1.4110   -3.0760    0.4520 n         1 MOL     -0.276126
     77 C25        -1.7150   -4.2840   -0.2340 c3        1 MOL     -0.109153
     78 C26        -2.3420   -4.0480   -1.6330 c         1 MOL      0.601586
     79 O14        -2.4540   -4.9840   -2.3950 o         1 MOL     -0.565317
     80 C27        -2.4530   -5.3240    0.7150 c3        1 MOL      0.011483
     81 C28        -3.7240   -4.7580    1.4340 c3        1 MOL     -0.079743
     82 C29        -4.8820   -4.3390    0.5470 c         1 MOL      0.379810
     83 N8         -5.9570   -5.0790    0.4890 n         1 MOL     -0.582880
     84 O15        -4.8300   -3.3810   -0.1740 o         1 MOL     -0.358185
     85 H33        -2.0510   -2.7450    1.1640 hn        1 MOL      0.217338
     86 H34        -0.7730   -4.7810   -0.4800 h1        1 MOL      0.107148
     87 H35        -1.7750   -5.5300    1.5400 hc        1 MOL      0.042297
     88 H36        -2.7330   -6.2070    0.1400 hc        1 MOL      0.042297
     89 H37        -3.3870   -3.9260    2.0450 hc        1 MOL      0.044868
     90 H38        -4.0140   -5.5330    2.1380 hc        1 MOL      0.044868
     91 H39        -6.0900   -5.9120    1.0410 hn        1 MOL      0.309454
     92 H40        -6.7230   -4.8700   -0.1470 hn        1 MOL      0.309454
     93 N9         -2.6460   -2.8170   -2.0090 n         1 MOL     -0.265587
     94 C30        -3.1780   -2.4380   -3.3510 c3        1 MOL     -0.215065
     95 C31        -4.5770   -1.7940   -3.3700 c         1 MOL      0.458165
     96 O16        -5.0180   -1.3500   -4.3800 o         1 MOL     -0.544243
     97 C32        -2.1080   -1.5910   -4.0730 c3        1 MOL      0.265223
     98 C33        -0.8430   -2.4050   -4.5260 c3        1 MOL     -0.333872
     99 C34        -1.6950   -0.3490   -3.2160 c3        1 MOL     -0.333872
    100 H41        -2.6870   -2.1550   -1.2370 hn        1 MOL      0.180448
    101 H42        -3.2730   -3.3880   -3.8630 h1        1 MOL      0.142425
    102 H43        -2.4980   -1.1640   -5.0070 hc        1 MOL      0.011050
    103 H44        -1.1180   -3.1520   -5.2710 hc        1 MOL      0.087813
    104 H45        -0.0930   -1.7710   -4.9900 hc        1 MOL      0.087813
    105 H46        -0.4620   -3.0680   -3.7500 hc        1 MOL      0.087813
    106 H47        -1.0080   -0.6470   -2.4320 hc        1 MOL      0.087813
    107 H48        -1.3160    0.3230   -3.9850 hc        1 MOL      0.087813
    108 H49        -2.5640    0.0360   -2.6770 hc        1 MOL      0.087813
    109 N10        -5.4190   -1.8120   -2.3270 n         1 MOL     -0.096061
    110 C35        -6.7400   -1.1840   -2.1630 c3        1 MOL     -0.082061
    111 C36        -6.7080    0.1820   -1.4060 c         1 MOL      0.659230
    112 O17        -7.2630    1.1750   -1.8640 o         1 MOL     -0.586327
    113 C37        -7.6130   -2.2750   -1.4300 c3        1 MOL     -0.175706
    114 C38        -7.8790   -3.5500   -2.3080 c         1 MOL      0.671281
    115 N11        -8.1790   -3.4370   -3.5490 n         1 MOL     -0.757227
    116 O18        -7.8570   -4.6210   -1.7650 o         1 MOL     -0.575339
    117 H50        -5.1230   -2.2890   -1.4950 hn        1 MOL      0.021067
    118 H51        -7.2140   -0.9800   -3.1230 h1        1 MOL      0.066593
    119 H52        -8.6230   -1.9860   -1.1210 hc        1 MOL      0.065042
    120 H53        -7.1730   -2.6130   -0.4920 hc        1 MOL      0.065042
    121 H54        -7.9190   -2.6180   -4.0730 hn        1 MOL      0.361195
    122 H55        -8.2380   -4.3140   -4.0480 hn        1 MOL      0.361195
    123 N12        -6.0440    0.2720   -0.2740 n         1 MOL     -0.576671
    124 C39        -6.1580    1.4470    0.6210 c3        1 MOL      0.222142
    125 C40        -4.8560    2.2990    0.7460 c         1 MOL      0.550085
    126 O19        -3.8030    1.7680    0.6440 o         1 MOL     -0.492337
    127 C41        -6.5920    0.9050    2.0210 c3        1 MOL     -0.111731
    128 C42        -8.0290    0.3340    2.1440 ca        1 MOL     -0.002720
    129 C43        -9.1690    1.1210    1.9420 ca        1 MOL     -0.072176
    130 C44        -8.1350   -0.9980    2.5500 ca        1 MOL     -0.072176
    131 C45       -10.4610    0.5500    1.9670 ca        1 MOL     -0.367567
    132 C46        -9.4020   -1.5840    2.5570 ca        1 MOL     -0.367567
    133 C47       -10.5360   -0.8120    2.2640 ca        1 MOL      0.474430
    134 O20       -11.7590   -1.3680    2.1060 oh        1 MOL     -0.567442
    135 H56        -5.5750   -0.5580    0.0650 hn        1 MOL      0.275501
    136 H57        -6.9680    2.1470    0.3920 h1        1 MOL      0.034403
    137 H58        -6.6430    1.7610    2.7100 hc        1 MOL      0.049949
    138 H59        -5.8180    0.2460    2.3980 hc        1 MOL      0.049949
    139 H60        -9.0970    2.1710    1.6780 ha        1 MOL      0.128901
    140 H61        -7.2660   -1.6390    2.6760 ha        1 MOL      0.128901
    141 H62       -11.3240    1.1560    1.7570 ha        1 MOL      0.161785
    142 H63        -9.5430   -2.6110    2.8610 ha        1 MOL      0.161785
    143 H64       -12.2380   -0.8670    1.4420 ho        1 MOL      0.381405
    144 N13        -4.9440    3.5980    0.9270 n         1 MOL     -0.563904
    145 C48        -3.8860    4.5670    1.4580 c3        1 MOL     -0.027249
    146 C49        -2.6360    4.7640    0.5590 c         1 MOL      0.615044
    147 O21        -1.6570    5.3610    1.0330 o         1 MOL     -0.523130
    148 C50        -3.4470    4.1840    2.8740 c3        1 MOL     -0.046078
    149 C51        -4.5620    4.1220    3.8820 c3        1 MOL      0.028759
    150 C52        -5.1200    5.4760    4.2320 c         1 MOL      0.662889
    151 O22        -6.0440    5.9780    3.5620 o         1 MOL     -0.731498
    152 O23        -4.4970    6.0490    5.1630 o         1 MOL     -0.731498
    153 H65        -5.7670    4.0820    0.6100 hn        1 MOL      0.306656
    154 H66        -4.3590    5.5410    1.4510 h1        1 MOL      0.119550
    155 H67        -2.7150    4.8410    3.3360 hc        1 MOL      0.051476
    156 H68        -2.9570    3.2140    2.8250 hc        1 MOL      0.051476
    157 H69        -4.2530    3.6750    4.8190 hc        1 MOL     -0.051990
    158 H70        -5.4220    3.5840    3.4930 hc        1 MOL     -0.051990
    159 N14        -2.6240    4.4000   -0.7410 n         1 MOL     -0.696005
    160 C53        -1.4370    4.4670   -1.6390 c3        1 MOL      0.047119
    161 C54        -1.6460    5.2370   -2.9960 c         1 MOL      0.496977
    162 O24        -0.7160    5.3960   -3.7570 o         1 MOL     -0.495532
    163 C55        -0.9130    3.0140   -1.9060 c3        1 MOL     -0.136314
    164 C56        -0.0820    2.3630   -0.7750 c3        1 MOL      0.070077
    165 C57         1.3410    2.9290   -0.5300 c         1 MOL      0.761408
    166 O25         1.6170    4.0760   -0.8800 o         1 MOL     -0.720092
    167 O26         2.1740    2.1880   -0.0300 o         1 MOL     -0.720092
    168 H71        -3.3340    3.7180   -0.9920 hn        1 MOL      0.340227
    169 H72        -0.6950    5.0500   -1.0970 h1        1 MOL      0.159490
    170 H73        -0.3120    2.9650   -2.8170 hc        1 MOL      0.054340
    171 H74        -1.7750    2.3940   -2.1450 hc        1 MOL      0.054340
    172 H75         0.0550    1.3250   -1.0800 hc        1 MOL     -0.027018
    173 H76        -0.6600    2.3950    0.1520 hc        1 MOL     -0.027018
    174 N15        -2.9420    5.6040   -3.3370 n         1 MOL     -0.326887
    175 C58        -3.1360    6.3620   -4.5730 c3        1 MOL     -0.162173
    176 H77        -3.1490    7.4280   -4.3460 h1        1 MOL      0.077101
    177 H78        -2.3200    6.1480   -5.2620 h1        1 MOL      0.077101
    178 H79        -4.0830    6.0760   -5.0300 h1        1 MOL      0.077101
    179 H80        -3.7500    5.2830   -2.8360 hn        1 MOL      0.257309
    180 Ca1         4.6750    1.9700    0.7100 Ca        1 MOL      1.808714
    181 O27         6.1120    0.9630    2.5520 oh        1 MOL     -0.915617
    182 H81         6.9160    0.4640    2.4260 ho        1 MOL      0.436496
    183 H82         5.9890    0.9810    3.4990 ho        1 MOL      0.436496
    184 O28         4.0570    4.4860    0.2760 oh        1 MOL     -0.915617
    185 H83         3.1590    4.2890    0.0080 ho        1 MOL      0.436496
    186 H84         4.3150    5.2200   -0.2810 ho        1 MOL      0.436496
    187 O29         3.1610    2.8650    2.6490 oh        1 MOL     -0.915617
    188 H85         2.2640    2.9940    2.3220 ho        1 MOL      0.436496
    189 H86         3.1090    3.0590    3.5780 ho        1 MOL      0.436496
@<TRIPOS>BOND
     1    1    2 1   
     2    1    4 1   
     3    1    5 1   
     4    1    6 1   
     5    2    3 2   
     6    2    7 1   
     7    7    8 1   
     8    7   15 1   
     9    8    9 1   
    10    8   11 1   
    11    8   16 1   
    12    9   10 2   
    13    9   19 1   
    14   11   12 1   
    15   11   17 1   
    16   11   18 1   
    17   12   13 1   
    18   12   14 1   
    19   19   20 1   
    20   19   27 1   
    21   20   21 1   
    22   20   23 1   
    23   20   28 1   
    24   21   22 2   
    25   21   38 1   
    26   23   24 1   
    27   23   25 1   
    28   23   29 1   
    29   24   26 1   
    30   24   30 1   
    31   24   31 1   
    32   25   32 1   
    33   25   33 1   
    34   25   34 1   
    35   26   35 1   
    36   26   36 1   
    37   26   37 1   
    38   38   39 1   
    39   38   46 1   
    40   39   40 1   
    41   39   42 1   
    42   39   47 1   
    43   40   41 2   
    44   40   50 1   
    45   42   43 1   
    46   42   48 1   
    47   42   49 1   
    48   43   44 1   
    49   43   45 1   
    50   50   51 1   
    51   50   54 1   
    52   51   52 1   
    53   51   55 1   
    54   51   56 1   
    55   52   53 2   
    56   52   57 1   
    57   57   58 1   
    58   57   65 1   
    59   58   59 1   
    60   58   61 1   
    61   58   66 1   
    62   59   60 2   
    63   59   69 1   
    64   61   62 1   
    65   61   67 1   
    66   61   68 1   
    67   62   63 1   
    68   62   64 1   
    69   69   70 1   
    70   69   73 1   
    71   70   71 1   
    72   70   74 1   
    73   70   75 1   
    74   71   72 2   
    75   71   76 1   
    76   76   77 1   
    77   76   85 1   
    78   77   78 1   
    79   77   80 1   
    80   77   86 1   
    81   78   79 2   
    82   78   93 1   
    83   80   81 1   
    84   80   87 1   
    85   80   88 1   
    86   81   82 1   
    87   81   89 1   
    88   81   90 1   
    89   82   83 1   
    90   82   84 2   
    91   83   91 1   
    92   83   92 1   
    93   93   94 1   
    94   93  100 1   
    95   94   95 1   
    96   94   97 1   
    97   94  101 1   
    98   95   96 2   
    99   95  109 1   
   100   97   98 1   
   101   97   99 1   
   102   97  102 1   
   103   98  103 1   
   104   98  104 1   
   105   98  105 1   
   106   99  106 1   
   107   99  107 1   
   108   99  108 1   
   109  109  110 1   
   110  109  117 1   
   111  110  111 1   
   112  110  113 1   
   113  110  118 1   
   114  111  112 2   
   115  111  123 1   
   116  113  114 1   
   117  113  119 1   
   118  113  120 1   
   119  114  115 1   
   120  114  116 2   
   121  115  121 1   
   122  115  122 1   
   123  123  124 1   
   124  123  135 1   
   125  124  125 1   
   126  124  127 1   
   127  124  136 1   
   128  125  126 2   
   129  125  144 1   
   130  127  128 1   
   131  127  137 1   
   132  127  138 1   
   133  128  129 ar  
   134  128  130 ar  
   135  129  131 ar  
   136  129  139 1   
   137  130  132 ar  
   138  130  140 1   
   139  131  133 ar  
   140  131  141 1   
   141  132  133 ar  
   142  132  142 1   
   143  133  134 1   
   144  134  143 1   
   145  144  145 1   
   146  144  153 1   
   147  145  146 1   
   148  145  148 1   
   149  145  154 1   
   150  146  147 2   
   151  146  159 1   
   152  148  149 1   
   153  148  155 1   
   154  148  156 1   
   155  149  150 1   
   156  149  157 1   
   157  149  158 1   
   158  150  151 1   
   159  150  152 1   
   160  159  160 1   
   161  159  168 1   
   162  160  161 1   
   163  160  163 1   
   164  160  169 1   
   165  161  162 2   
   166  161  174 1   
   167  163  164 1   
   168  163  170 1   
   169  163  171 1   
   170  164  165 1   
   171  164  172 1   
   172  164  173 1   
   173  165  166 1   
   174  165  167 1   
   175  174  175 1   
   176  174  179 1   
   177  175  176 1   
   178  175  177 1   
   179  175  178 1   
   180  181  182 1   
   181  181  183 1   
   182  184  185 1   
   183  184  186 1   
   184  187  188 1   
   185  187  189 1   
@<TRIPOS>SUBSTRUCTURE
     1 MOL         1 TEMP              0 ****  ****    0 ROOT
