@<TRIPOS>MOLECULE
MOL
  192   187     1     0     0
SMALL
resp


@<TRIPOS>ATOM
      1 C1          4.3090    3.9740   -3.9100 c3        1 MOL     -0.501178
      2 C2          4.9610    3.2650   -2.6890 c         1 MOL      0.902698
      3 O1          4.3560    2.8250   -1.7050 o         1 MOL     -0.650434
      4 H1          3.3160    3.5600   -4.0820 hc        1 MOL      0.126962
      5 H2          4.2270    5.0420   -3.7090 hc        1 MOL      0.126962
      6 H3          4.9260    3.8160   -4.7940 hc        1 MOL      0.126962
      7 N1          6.2600    2.9690   -2.7940 n         1 MOL     -0.748850
      8 C3          7.1330    1.9550   -2.0330 c3        1 MOL      0.045391
      9 C4          6.2510    0.6940   -1.7040 c         1 MOL      0.588339
     10 O2          5.6990    0.5120   -0.6200 o         1 MOL     -0.570402
     11 C5          7.9570    2.6640   -0.8920 c3        1 MOL     -0.037999
     12 C6          7.2750    3.6260    0.0250 c         1 MOL      0.712531
     13 O3          6.4160    3.1120    0.7940 o         1 MOL     -0.714910
     14 O4          7.6360    4.8040    0.1340 o         1 MOL     -0.714910
     15 H4          6.7780    3.5060   -3.4810 hn        1 MOL      0.335955
     16 H5          7.7730    1.4970   -2.7830 h1        1 MOL      0.061007
     17 H6          8.9310    3.0310   -1.2100 hc        1 MOL      0.025086
     18 H7          8.1860    1.8260   -0.2310 hc        1 MOL      0.025086
     19 N2          5.9500   -0.1350   -2.7250 n         1 MOL     -0.547068
     20 C7          5.2090   -1.4140   -2.7310 c3        1 MOL      0.038582
     21 C8          5.8270   -2.5630   -1.9350 c         1 MOL      0.441477
     22 O5          5.9920   -3.6610   -2.4370 o         1 MOL     -0.563469
     23 C9          3.6520   -1.2240   -2.5110 c3        1 MOL      0.480398
     24 C10         2.7500   -2.4230   -2.7490 c3        1 MOL      0.032651
     25 C11         3.0900   -0.1260   -3.4650 c3        1 MOL     -0.299131
     26 C12         2.5870   -3.0110   -4.1870 c3        1 MOL     -0.500893
     27 H8          6.0930    0.1850   -3.6750 hn        1 MOL      0.318365
     28 H9          5.2980   -1.7170   -3.7740 h1        1 MOL      0.030180
     29 H10         3.5010   -0.8590   -1.4900 hc        1 MOL     -0.283099
     30 H11         1.7810   -2.2440   -2.2780 hc        1 MOL      0.067602
     31 H12         3.2660   -3.2010   -2.1820 hc        1 MOL      0.067602
     32 H13         3.5760    0.8270   -3.2430 hc        1 MOL      0.040917
     33 H14         3.3150   -0.3610   -4.5060 hc        1 MOL      0.040917
     34 H15         2.0050   -0.0970   -3.3900 hc        1 MOL      0.040917
     35 H16         1.9670   -3.9020   -4.1210 hc        1 MOL      0.110312
     36 H17         1.9290   -2.3090   -4.7030 hc        1 MOL      0.110312
     37 H18         3.5300   -3.2400   -4.6840 hc        1 MOL      0.110312
     38 N3          6.1990   -2.3640   -0.6280 n         1 MOL     -0.125022
     39 C13         7.0130   -3.2640    0.1430 c3        1 MOL      0.022618
     40 C14         6.3060   -4.5960    0.4610 c         1 MOL      0.576461
     41 O6          7.0520   -5.5600    0.4960 o         1 MOL     -0.605778
     42 C15         7.4460   -2.6120    1.4630 c3        1 MOL     -0.212937
     43 C16         8.1450   -1.2830    1.1740 c         1 MOL      0.751367
     44 O7          8.0550   -0.3360    2.0070 o         1 MOL     -0.716659
     45 O8          8.9020   -1.2000    0.1770 o         1 MOL     -0.716659
     46 H19         6.0490   -1.4150   -0.3060 hn        1 MOL      0.145504
     47 H20         7.8700   -3.5420   -0.4740 h1        1 MOL      0.050643
     48 H21         8.1760   -3.2720    1.9230 hc        1 MOL      0.072254
     49 H22         6.6590   -2.5500    2.2070 hc        1 MOL      0.072254
     50 N4          5.0160   -4.7350    0.7530 n         1 MOL     -0.471218
     51 C17         3.9590   -3.7770    0.8980 c3        1 MOL      0.326276
     52 C18         2.6980   -4.2330    1.5520 c         1 MOL      0.565392
     53 O9          2.1790   -5.3340    1.3070 o         1 MOL     -0.586374
     54 H23         4.8710   -5.7330    0.6670 hn        1 MOL      0.261542
     55 H24         3.5190   -3.5020   -0.0680 h1        1 MOL     -0.097735
     56 H25         4.3800   -2.8940    1.3890 h1        1 MOL     -0.097735
     57 N5          2.0560   -3.4000    2.4470 n         1 MOL     -0.476635
     58 C19         2.2910   -1.9940    2.8380 c3        1 MOL      0.111235
     59 C20         2.3090   -1.0450    1.6280 c         1 MOL      0.450654
     60 O10         3.3340   -0.4400    1.2600 o         1 MOL     -0.477158
     61 C21         3.5120   -1.8270    3.7430 c3        1 MOL     -0.533257
     62 C22         3.5510   -2.8340    4.9290 c         1 MOL      0.855709
     63 O11         4.3450   -3.7670    4.9590 o         1 MOL     -0.754358
     64 O12         2.8270   -2.6070    5.9000 o         1 MOL     -0.754358
     65 H26         1.1860   -3.7960    2.7740 hn        1 MOL      0.279738
     66 H27         1.4830   -1.7070    3.5080 h1        1 MOL      0.064863
     67 H28         3.4350   -0.8040    4.1100 hc        1 MOL      0.138605
     68 H29         4.4290   -1.8690    3.1440 hc        1 MOL      0.138605
     69 N6          1.2470   -0.8020    0.9320 n         1 MOL     -0.270732
     70 C23        -0.1650   -1.2780    1.2330 c3        1 MOL     -0.181716
     71 C24        -0.6040   -2.5460    0.4520 c         1 MOL      0.645568
     72 O13         0.0160   -3.0380   -0.5110 o         1 MOL     -0.532027
     73 H30         1.4250   -0.2310    0.1190 hn        1 MOL      0.299505
     74 H31        -0.8500   -0.5920    0.7340 h1        1 MOL      0.114398
     75 H32        -0.3290   -1.3540    2.3080 h1        1 MOL      0.114398
     76 N7         -1.8580   -3.0790    0.7080 n         1 MOL     -0.608663
     77 C25        -2.2530   -4.3270    0.0210 c3        1 MOL     -0.073781
     78 C26        -2.9500   -4.2330   -1.3450 c         1 MOL      0.406856
     79 O14        -3.0790   -5.2840   -2.0160 o         1 MOL     -0.512058
     80 C27        -2.9010   -5.3790    1.0420 c3        1 MOL      0.159692
     81 C28        -4.1820   -4.8790    1.8290 c3        1 MOL     -0.331073
     82 C29        -5.2640   -4.4540    0.8060 c         1 MOL      0.438469
     83 N8         -5.9510   -5.4030    0.2210 n         1 MOL     -0.544777
     84 O15        -5.5840   -3.2980    0.5020 o         1 MOL     -0.455722
     85 H33        -2.3190   -2.8190    1.5610 hn        1 MOL      0.339437
     86 H34        -1.3590   -4.8880   -0.2700 h1        1 MOL      0.184692
     87 H35        -2.2350   -5.7650    1.8220 hc        1 MOL      0.000203
     88 H36        -3.0630   -6.2190    0.3650 hc        1 MOL      0.000203
     89 H37        -3.9570   -4.0630    2.4950 hc        1 MOL      0.118822
     90 H38        -4.5110   -5.6960    2.4650 hc        1 MOL      0.118822
     91 H39        -5.7690   -6.3710    0.4280 hn        1 MOL      0.298096
     92 H40        -6.7560   -5.1250   -0.3300 hn        1 MOL      0.298096
     93 N9         -3.2530   -3.0030   -1.9080 n         1 MOL     -0.184581
     94 C30        -3.6360   -2.6890   -3.2530 c3        1 MOL     -0.023999
     95 C31        -5.0210   -1.9960   -3.3230 c         1 MOL      0.472838
     96 O16        -5.5170   -1.8150   -4.3870 o         1 MOL     -0.566033
     97 C32        -2.6980   -1.7350   -3.9740 c3        1 MOL      0.036863
     98 C33        -1.4010   -2.5680   -4.1830 c3        1 MOL     -0.212767
     99 C34        -2.1890   -0.5890   -3.0020 c3        1 MOL     -0.212767
    100 H41        -2.9810   -2.1910   -1.3610 hn        1 MOL      0.170890
    101 H42        -3.8930   -3.5760   -3.8450 h1        1 MOL      0.091082
    102 H43        -3.1130   -1.3390   -4.9030 hc        1 MOL      0.064425
    103 H44        -0.9610   -2.7360   -3.2010 hc        1 MOL      0.061066
    104 H45        -1.5630   -3.5430   -4.6350 hc        1 MOL      0.061066
    105 H46        -0.6130   -2.0380   -4.7280 hc        1 MOL      0.061066
    106 H47        -1.5490   -0.8690   -2.1640 hc        1 MOL      0.061066
    107 H48        -1.7740    0.1220   -3.7140 hc        1 MOL      0.061066
    108 H49        -3.0260   -0.0600   -2.5580 hc        1 MOL      0.061066
    109 N10        -5.6030   -1.4890   -2.2000 n         1 MOL     -0.262176
    110 C35        -6.9500   -0.7300   -2.1890 c3        1 MOL      0.130439
    111 C36        -6.8830    0.7160   -1.6980 c         1 MOL      0.536394
    112 O17        -7.7450    1.5300   -2.1290 o         1 MOL     -0.555679
    113 C37        -7.8880   -1.5670   -1.3510 c3        1 MOL     -0.264799
    114 C38        -8.1430   -3.0010   -1.8680 c         1 MOL      0.566154
    115 N11        -8.2010   -3.2300   -3.1410 n         1 MOL     -0.666808
    116 O18        -8.2770   -3.9510   -1.0560 o         1 MOL     -0.573516
    117 H50        -5.2210   -1.7840   -1.3070 hn        1 MOL      0.163187
    118 H51        -7.4230   -0.6480   -3.1740 h1        1 MOL      0.034778
    119 H52        -8.8360   -1.0470   -1.2730 hc        1 MOL      0.078618
    120 H53        -7.4640   -1.6770   -0.3480 hc        1 MOL      0.078618
    121 H54        -8.1210   -2.4590   -3.7940 hn        1 MOL      0.347928
    122 H55        -8.4480   -4.1800   -3.3570 hn        1 MOL      0.347928
    123 N12        -5.9660    1.0610   -0.8000 n         1 MOL     -0.630743
    124 C39        -5.9840    2.4090   -0.1660 c3        1 MOL      0.389493
    125 C40        -4.6500    2.8900    0.3380 c         1 MOL      0.501755
    126 O19        -3.6680    2.1980    0.3950 o         1 MOL     -0.513724
    127 C41        -7.0290    2.4800    0.9560 c3        1 MOL     -0.039833
    128 C42        -7.0450    1.2810    1.8570 ca        1 MOL      0.158769
    129 C43        -8.2230    0.4980    1.8250 ca        1 MOL     -0.222361
    130 C44        -5.9550    0.9410    2.6540 ca        1 MOL     -0.222361
    131 C45        -8.1880   -0.7380    2.5130 ca        1 MOL     -0.224618
    132 C46        -5.9900   -0.2150    3.4400 ca        1 MOL     -0.224618
    133 C47        -7.0840   -1.0930    3.3220 ca        1 MOL      0.254970
    134 O20        -7.0200   -2.2610    4.0240 oh        1 MOL     -0.394174
    135 H56        -5.4530    0.3230   -0.3230 hn        1 MOL      0.340521
    136 H57        -6.3070    3.1290   -0.9140 h1        1 MOL     -0.026595
    137 H58        -8.0000    2.5990    0.4980 hc        1 MOL      0.006611
    138 H59        -7.0310    3.3710    1.5840 hc        1 MOL      0.006611
    139 H60        -9.1300    0.7530    1.2930 ha        1 MOL      0.126387
    140 H61        -5.0520    1.5320    2.7260 ha        1 MOL      0.126387
    141 H62        -8.9450   -1.4930    2.4000 ha        1 MOL      0.171005
    142 H63        -5.1120   -0.3820    4.0420 ha        1 MOL      0.171005
    143 H64        -7.8840   -2.6180    3.8000 ho        1 MOL      0.277178
    144 N13        -4.5860    4.1840    0.6480 n         1 MOL     -0.397323
    145 C48        -3.4720    4.9850    1.2550 c3        1 MOL     -0.024757
    146 C49        -2.2250    5.0100    0.3750 c         1 MOL      0.161551
    147 O21        -1.3340    5.8270    0.6730 o         1 MOL     -0.489160
    148 C50        -3.1300    4.7160    2.7100 c3        1 MOL      0.350568
    149 C51        -4.3330    4.7390    3.6040 c3        1 MOL     -0.155918
    150 C52        -4.0030    4.4530    5.1130 c         1 MOL      0.639930
    151 O22        -3.5450    3.3640    5.4770 o         1 MOL     -0.699994
    152 O23        -4.1660    5.3800    5.9440 o         1 MOL     -0.699994
    153 H65        -5.4590    4.6200    0.4020 hn        1 MOL      0.212187
    154 H66        -3.8320    6.0050    1.1810 h1        1 MOL      0.090857
    155 H67        -2.4940    5.5230    3.0990 hc        1 MOL     -0.030334
    156 H68        -2.5630    3.8030    2.8760 hc        1 MOL     -0.030334
    157 H69        -5.0640    4.0530    3.1750 hc        1 MOL     -0.043054
    158 H70        -4.8320    5.7080    3.5460 hc        1 MOL     -0.043054
    159 N14        -2.0890    4.2510   -0.7080 n         1 MOL      0.045838
    160 C53        -0.8810    4.3390   -1.6010 c3        1 MOL     -0.214058
    161 C54        -1.2060    5.3500   -2.7100 c         1 MOL      0.373721
    162 O24        -0.2390    5.8700   -3.2950 o         1 MOL     -0.547046
    163 C55        -0.6500    3.0000   -2.3210 c3        1 MOL      0.054766
    164 C56        -0.3850    1.7880   -1.3850 c3        1 MOL      0.137935
    165 C57         0.5910    2.1410   -0.2560 c         1 MOL      0.378622
    166 O25         0.1100    2.6550    0.7720 o         1 MOL     -0.554255
    167 O26         1.7930    1.7660   -0.2690 o         1 MOL     -0.554255
    168 H71        -2.8200    3.5580   -0.8420 hn        1 MOL      0.083882
    169 H72         0.0310    4.6890   -1.1290 h1        1 MOL      0.241137
    170 H73         0.2940    3.1040   -2.8670 hc        1 MOL     -0.001559
    171 H74        -1.3960    2.7470   -3.0670 hc        1 MOL     -0.001559
    172 H75        -0.0240    0.9550   -1.9970 hc        1 MOL     -0.042794
    173 H76        -1.3490    1.4810   -0.9790 hc        1 MOL     -0.042794
    174 N15        -2.4160    5.7360   -2.8260 n         1 MOL     -0.108761
    175 C58        -2.8730    6.7270   -3.9190 c3        1 MOL     -0.200249
    176 H77        -3.8900    6.4840   -4.2260 h1        1 MOL      0.090255
    177 H78        -2.8450    7.7420   -3.5240 h1        1 MOL      0.090255
    178 H79        -2.2070    6.6520   -4.7780 h1        1 MOL      0.090255
    179 H80        -3.0780    5.3080   -2.1940 hn        1 MOL      0.130813
    180 Ca1         4.0460    1.9840    0.8070 Ca        1 MOL      1.807506
    181 O27         2.9970    4.6190    0.3390 oh        1 MOL     -0.870055
    182 H81         3.3330    5.4550    0.0210 ho        1 MOL      0.403324
    183 H82         2.2670    4.8460    0.9210 ho        1 MOL      0.403324
    184 O28         2.0790    1.8030    2.6480 oh        1 MOL     -0.870055
    185 H83         1.7930    1.4550    3.4970 ho        1 MOL      0.403324
    186 H84         1.2780    2.0930    2.2190 ho        1 MOL      0.403324
    187 O29         5.5980    0.7980    2.5800 oh        1 MOL     -0.870055
    188 H85         6.4340    0.4510    2.2870 ho        1 MOL      0.403324
    189 H86         5.6100    0.6840    3.5260 ho        1 MOL      0.403324
    190 O30         4.8450    3.7550    2.7280 oh        1 MOL     -0.870055
    191 H87         5.6390    3.5040    2.2460 ho        1 MOL      0.403324
    192 H88         4.9910    4.6620    2.9840 ho        1 MOL      0.403324
@<TRIPOS>BOND
     1    1    2 1   
     2    1    4 1   
     3    1    5 1   
     4    1    6 1   
     5    2    3 2   
     6    2    7 1   
     7    7    8 1   
     8    7   15 1   
     9    8    9 1   
    10    8   11 1   
    11    8   16 1   
    12    9   10 2   
    13    9   19 1   
    14   11   12 1   
    15   11   17 1   
    16   11   18 1   
    17   12   13 1   
    18   12   14 1   
    19   19   20 1   
    20   19   27 1   
    21   20   21 1   
    22   20   23 1   
    23   20   28 1   
    24   21   22 2   
    25   21   38 1   
    26   23   24 1   
    27   23   25 1   
    28   23   29 1   
    29   24   26 1   
    30   24   30 1   
    31   24   31 1   
    32   25   32 1   
    33   25   33 1   
    34   25   34 1   
    35   26   35 1   
    36   26   36 1   
    37   26   37 1   
    38   38   39 1   
    39   38   46 1   
    40   39   40 1   
    41   39   42 1   
    42   39   47 1   
    43   40   41 2   
    44   40   50 1   
    45   42   43 1   
    46   42   48 1   
    47   42   49 1   
    48   43   44 1   
    49   43   45 1   
    50   50   51 1   
    51   50   54 1   
    52   51   52 1   
    53   51   55 1   
    54   51   56 1   
    55   52   53 2   
    56   52   57 1   
    57   57   58 1   
    58   57   65 1   
    59   58   59 1   
    60   58   61 1   
    61   58   66 1   
    62   59   60 2   
    63   59   69 1   
    64   61   62 1   
    65   61   67 1   
    66   61   68 1   
    67   62   63 1   
    68   62   64 1   
    69   69   70 1   
    70   69   73 1   
    71   70   71 1   
    72   70   74 1   
    73   70   75 1   
    74   71   72 2   
    75   71   76 1   
    76   76   77 1   
    77   76   85 1   
    78   77   78 1   
    79   77   80 1   
    80   77   86 1   
    81   78   79 2   
    82   78   93 1   
    83   80   81 1   
    84   80   87 1   
    85   80   88 1   
    86   81   82 1   
    87   81   89 1   
    88   81   90 1   
    89   82   83 1   
    90   82   84 2   
    91   83   91 1   
    92   83   92 1   
    93   93   94 1   
    94   93  100 1   
    95   94   95 1   
    96   94   97 1   
    97   94  101 1   
    98   95   96 2   
    99   95  109 1   
   100   97   98 1   
   101   97   99 1   
   102   97  102 1   
   103   98  103 1   
   104   98  104 1   
   105   98  105 1   
   106   99  106 1   
   107   99  107 1   
   108   99  108 1   
   109  109  110 1   
   110  109  117 1   
   111  110  111 1   
   112  110  113 1   
   113  110  118 1   
   114  111  112 2   
   115  111  123 1   
   116  113  114 1   
   117  113  119 1   
   118  113  120 1   
   119  114  115 1   
   120  114  116 2   
   121  115  121 1   
   122  115  122 1   
   123  123  124 1   
   124  123  135 1   
   125  124  125 1   
   126  124  127 1   
   127  124  136 1   
   128  125  126 2   
   129  125  144 1   
   130  127  128 1   
   131  127  137 1   
   132  127  138 1   
   133  128  129 ar  
   134  128  130 ar  
   135  129  131 ar  
   136  129  139 1   
   137  130  132 ar  
   138  130  140 1   
   139  131  133 ar  
   140  131  141 1   
   141  132  133 ar  
   142  132  142 1   
   143  133  134 1   
   144  134  143 1   
   145  144  145 1   
   146  144  153 1   
   147  145  146 1   
   148  145  148 1   
   149  145  154 1   
   150  146  147 2   
   151  146  159 1   
   152  148  149 1   
   153  148  155 1   
   154  148  156 1   
   155  149  150 1   
   156  149  157 1   
   157  149  158 1   
   158  150  151 1   
   159  150  152 1   
   160  159  160 1   
   161  159  168 1   
   162  160  161 1   
   163  160  163 1   
   164  160  169 1   
   165  161  162 2   
   166  161  174 1   
   167  163  164 1   
   168  163  170 1   
   169  163  171 1   
   170  164  165 1   
   171  164  172 1   
   172  164  173 1   
   173  165  166 1   
   174  165  167 1   
   175  174  175 1   
   176  174  179 1   
   177  175  176 1   
   178  175  177 1   
   179  175  178 1   
   180  181  182 1   
   181  181  183 1   
   182  184  185 1   
   183  184  186 1   
   184  187  188 1   
   185  187  189 1   
   186  190  191 1   
   187  190  192 1   
@<TRIPOS>SUBSTRUCTURE
     1 MOL         1 TEMP              0 ****  ****    0 ROOT
