@<TRIPOS>MOLECULE
MOL
  178   175     1     0     0
SMALL
resp


@<TRIPOS>ATOM
      1 C1          0.1380    7.1970   -2.5510 c3        1 MOL     -0.323929
      2 C2          1.4810    7.0280   -1.8770 c         1 MOL      0.689942
      3 O1          1.7460    7.6760   -0.8220 o         1 MOL     -0.616568
      4 H1         -0.5230    7.7730   -1.9040 hc        1 MOL      0.074438
      5 H2          0.2690    7.7220   -3.4980 hc        1 MOL      0.074438
      6 H3         -0.3020    6.2170   -2.7380 hc        1 MOL      0.074438
      7 N1          2.3580    6.2560   -2.4740 n         1 MOL     -0.463815
      8 C3          3.6690    5.9520   -1.9840 c3        1 MOL      0.076323
      9 C4          3.6780    4.9110   -0.7380 c         1 MOL      0.489585
     10 O2          3.2780    3.7860   -0.8250 o         1 MOL     -0.479569
     11 C5          4.4160    5.3970   -3.1050 c3        1 MOL     -0.357206
     12 C6          5.8520    5.2770   -2.7650 c         1 MOL      0.751072
     13 O3          6.3130    4.3350   -2.1350 o         1 MOL     -0.742937
     14 O4          6.6270    6.2410   -2.9540 o         1 MOL     -0.742937
     15 H4          2.0390    5.8190   -3.3310 hn        1 MOL      0.285348
     16 H5          4.1320    6.8680   -1.5980 h1        1 MOL      0.068525
     17 H6          4.2720    6.0110   -3.9970 hc        1 MOL      0.064198
     18 H7          4.0840    4.3800   -3.3180 hc        1 MOL      0.064198
     19 N2          4.2620    5.4270    0.3640 n         1 MOL     -0.349906
     20 C7          4.2360    4.7180    1.6850 c3        1 MOL      0.210770
     21 C8          2.7860    4.3680    2.0570 c         1 MOL      0.313077
     22 O5          1.8190    5.1570    1.8280 o         1 MOL     -0.506460
     23 C9          4.8540    5.5830    2.8100 c3        1 MOL     -0.340843
     24 H8          4.7240    6.3200    0.2950 hn        1 MOL      0.279241
     25 H9          4.8980    3.8550    1.5470 h1        1 MOL      0.054258
     26 H10         5.7940    5.9970    2.4350 hc        1 MOL      0.090390
     27 H11         4.3560    6.5250    3.0170 hc        1 MOL      0.090390
     28 H12         5.0990    5.0220    3.7190 hc        1 MOL      0.090390
     29 N3          2.5200    3.2430    2.7290 n         1 MOL     -0.094234
     30 C10         3.4080    2.2920    3.4740 c3        1 MOL     -0.055715
     31 C11         4.0100    1.2030    2.5490 c         1 MOL      0.206494
     32 O6          3.3500    0.7190    1.6010 o         1 MOL     -0.372752
     33 C12         2.6560    1.5640    4.5810 c3        1 MOL     -0.408109
     34 C13         1.1830    1.3370    4.1680 c         1 MOL      0.694470
     35 O7          0.3170    1.5510    5.0640 o         1 MOL     -0.652487
     36 O8          0.9140    0.8390    3.0460 o         1 MOL     -0.652487
     37 H13         1.5480    3.0840    2.9440 hn        1 MOL      0.191026
     38 H14         4.2760    2.8710    3.7900 h1        1 MOL      0.078647
     39 H15         2.6530    2.2120    5.4590 hc        1 MOL      0.126382
     40 H16         3.1560    0.6540    4.9020 hc        1 MOL      0.126382
     41 N4          5.2540    0.8350    2.8410 n         1 MOL     -0.325427
     42 C14         5.9490   -0.3450    2.2550 c3        1 MOL     -0.113976
     43 C15         6.0820   -0.2810    0.6990 c         1 MOL      0.649988
     44 O9          6.0850    0.7400    0.0850 o         1 MOL     -0.456275
     45 H17         5.5220    1.1150    3.7760 hn        1 MOL      0.287182
     46 H18         5.3790   -1.2420    2.4690 h1        1 MOL      0.109042
     47 H19         6.9670   -0.4780    2.6070 h1        1 MOL      0.109042
     48 N5          6.4100   -1.3140   -0.0610 n         1 MOL     -0.529291
     49 C16         6.4930   -2.7290    0.3950 c3        1 MOL     -0.095301
     50 C17         6.0180   -3.7960   -0.6060 c         1 MOL      0.547079
     51 O10         6.0430   -4.9460   -0.1960 o         1 MOL     -0.538342
     52 C18         7.9420   -3.0420    0.7840 c3        1 MOL     -0.301732
     53 C19         8.9690   -2.8230   -0.3420 c         1 MOL      0.678479
     54 N6          9.5000   -3.9120   -0.9430 n         1 MOL     -0.832346
     55 O11         9.3870   -1.7620   -0.7440 o         1 MOL     -0.513599
     56 H20         6.2560   -1.1290   -1.0420 hn        1 MOL      0.270962
     57 H21         5.8470   -2.8600    1.2670 h1        1 MOL      0.142353
     58 H22         7.9990   -4.0250    1.2580 hc        1 MOL      0.104039
     59 H23         8.2340   -2.3920    1.6170 hc        1 MOL      0.104039
     60 H24         9.2320   -4.8590   -0.7200 hn        1 MOL      0.366989
     61 H25        10.2300   -3.7400   -1.6280 hn        1 MOL      0.366989
     62 N7          5.7350   -3.4890   -1.8320 n         1 MOL     -0.197757
     63 C20         5.3190   -4.3980   -2.8700 c3        1 MOL     -0.431034
     64 C21         3.7980   -4.8270   -2.9630 c         1 MOL      0.624505
     65 O12         3.4930   -5.6250   -3.9190 o         1 MOL     -0.545180
     66 H26         5.9710   -2.5480   -2.0990 hn        1 MOL      0.298182
     67 H27         5.8730   -5.3290   -2.7420 h1        1 MOL      0.175728
     68 H28         5.5220   -3.9070   -3.8290 h1        1 MOL      0.175728
     69 N8          2.9040   -4.4510   -2.0050 n         1 MOL     -0.480787
     70 C22         1.6050   -5.0810   -1.6930 c3        1 MOL      0.064108
     71 C23         0.5390   -3.9920   -1.4090 c         1 MOL      0.484195
     72 O13         0.7690   -2.7690   -1.1260 o         1 MOL     -0.553252
     73 C24         1.7690   -6.0010   -0.5040 c3        1 MOL      0.311150
     74 C25         2.5610   -7.2420   -0.8440 c3        1 MOL     -0.403891
     75 O14         2.4550   -5.5020    0.6050 oh        1 MOL     -0.636955
     76 H29         3.2520   -3.9140   -1.2160 hn        1 MOL      0.337027
     77 H30         1.2690   -5.5160   -2.6330 h1        1 MOL      0.082356
     78 H31         0.7520   -6.3180   -0.2550 h1        1 MOL      0.008142
     79 H32         2.2820   -6.1120    1.3240 ho        1 MOL      0.449177
     80 H33         2.3970   -8.0130   -0.1030 hc        1 MOL      0.107352
     81 H34         2.2640   -7.5880   -1.8330 hc        1 MOL      0.107352
     82 H35         3.6030   -6.9100   -0.8370 hc        1 MOL      0.107352
     83 N9         -0.7460   -4.4690   -1.3560 n         1 MOL     -0.270435
     84 C26        -1.8530   -3.6180   -1.0560 c3        1 MOL     -0.173406
     85 C27        -2.2380   -3.6650    0.4640 c         1 MOL      0.267448
     86 O15        -2.2530   -4.6960    1.1680 o         1 MOL     -0.527158
     87 C28        -3.0830   -3.9540   -1.9780 c3        1 MOL      0.309663
     88 C29        -4.4280   -3.2190   -1.5680 c3        1 MOL      0.041759
     89 C30        -2.7550   -3.7140   -3.4450 c3        1 MOL     -0.362208
     90 C31        -5.7170   -3.7440   -2.3310 c3        1 MOL     -0.261814
     91 H36        -1.0120   -5.4000   -1.6240 hn        1 MOL      0.229596
     92 H37        -1.7050   -2.5810   -1.3610 h1        1 MOL      0.188136
     93 H38        -3.3080   -5.0130   -1.8680 hc        1 MOL     -0.029741
     94 H39        -4.2420   -2.1390   -1.5970 hc        1 MOL      0.001776
     95 H40        -4.5600   -3.3970   -0.4990 hc        1 MOL      0.001776
     96 H41        -3.5030   -4.2270   -4.0440 hc        1 MOL      0.068702
     97 H42        -2.8550   -2.6520   -3.6620 hc        1 MOL      0.068702
     98 H43        -1.7270   -4.0090   -3.6700 hc        1 MOL      0.068702
     99 H44        -6.5630   -3.1000   -2.1040 hc        1 MOL      0.058995
    100 H45        -5.7480   -3.6760   -3.4200 hc        1 MOL      0.058995
    101 H46        -5.8630   -4.7910   -2.0490 hc        1 MOL      0.058995
    102 N10        -2.5810   -2.5590    1.0920 n         1 MOL     -0.083354
    103 C32        -3.0730   -2.3160    2.4630 c3        1 MOL     -0.048091
    104 C33        -4.4760   -1.5620    2.5460 c         1 MOL      0.267749
    105 O16        -5.1020   -1.3960    3.6380 o         1 MOL     -0.518231
    106 C34        -2.0440   -1.5630    3.2270 c3        1 MOL      0.052929
    107 C35        -0.7670   -2.4010    3.3260 c         1 MOL      0.653356
    108 O17         0.1540   -2.1590    2.4890 o         1 MOL     -0.706313
    109 O18        -0.5730   -3.1500    4.3270 o         1 MOL     -0.706313
    110 H47        -2.6090   -1.7270    0.5220 hn        1 MOL      0.113981
    111 H48        -3.2150   -3.2460    3.0070 h1        1 MOL      0.115883
    112 H49        -2.3590   -1.3970    4.2490 hc        1 MOL      0.008275
    113 H50        -1.8370   -0.6270    2.7130 hc        1 MOL      0.008275
    114 N11        -4.9990   -1.1800    1.3630 n         1 MOL     -0.250324
    115 C36        -6.3780   -0.5150    1.2370 c3        1 MOL      0.419542
    116 C37        -6.1780    0.8750    0.5490 c         1 MOL      0.083564
    117 O19        -6.7490    1.0690   -0.5270 o         1 MOL     -0.430730
    118 C38        -7.4320   -1.4660    0.4860 c3        1 MOL     -0.288021
    119 C39        -8.8670   -1.1010    0.5360 ca        1 MOL      0.287267
    120 C40        -9.4660   -0.5470    1.7060 ca        1 MOL     -0.299894
    121 C41        -9.5730   -1.3590   -0.6050 ca        1 MOL     -0.299894
    122 C42       -10.8320   -0.2370    1.7910 ca        1 MOL     -0.014601
    123 C43       -10.9530   -0.9680   -0.5080 ca        1 MOL     -0.014601
    124 C44       -11.5640   -0.5440    0.6820 ca        1 MOL     -0.213317
    125 H51        -4.4000   -1.1870    0.5480 hn        1 MOL      0.226760
    126 H52        -6.6560   -0.4110    2.2850 h1        1 MOL     -0.037897
    127 H53        -7.2800   -2.5130    0.7720 hc        1 MOL      0.075064
    128 H54        -7.1350   -1.4010   -0.5540 hc        1 MOL      0.075064
    129 H55        -8.9370   -0.4660    2.6400 ha        1 MOL      0.165331
    130 H56        -9.1170   -1.6760   -1.5300 ha        1 MOL      0.165331
    131 H57       -11.2430   -0.1350    2.7870 ha        1 MOL      0.076780
    132 H58       -11.5900   -1.2540   -1.3390 ha        1 MOL      0.076780
    133 H59       -12.6380   -0.4730    0.7510 ha        1 MOL      0.102957
    134 N12        -5.3950    1.7980    1.0870 n         1 MOL      0.035386
    135 C45        -5.1740    3.1540    0.5460 c3        1 MOL      0.041327
    136 C46        -4.7800    3.2490   -0.8740 c         1 MOL      0.263334
    137 O20        -5.0920    4.1620   -1.5860 o         1 MOL     -0.499190
    138 C47        -4.1830    3.8560    1.4900 c3        1 MOL     -0.003162
    139 C48        -4.2960    3.0220    2.8540 c3        1 MOL     -0.162886
    140 C49        -4.6630    1.6310    2.3410 c3        1 MOL     -0.126784
    141 H60        -6.1080    3.6840    0.7290 h1        1 MOL      0.046268
    142 H61        -3.2480    3.7120    0.9490 hc        1 MOL      0.035275
    143 H62        -4.3980    4.9320    1.5570 hc        1 MOL      0.035275
    144 H63        -3.3480    3.0320    3.3830 hc        1 MOL      0.071692
    145 H64        -5.0460    3.4830    3.4960 hc        1 MOL      0.071692
    146 H65        -3.7070    1.0980    2.2330 h1        1 MOL      0.114576
    147 H66        -5.2710    1.1680    3.1160 h1        1 MOL      0.114576
    148 N13        -4.0170    2.2930   -1.3740 n         1 MOL      0.049585
    149 C50        -3.6320    2.1170   -2.7570 c3        1 MOL     -0.475029
    150 C51        -4.8360    2.2720   -3.7700 c         1 MOL      0.626145
    151 O21        -4.7640    2.7740   -4.8400 o         1 MOL     -0.548926
    152 C52        -2.8780    0.8080   -2.9760 c3        1 MOL      0.308554
    153 C53        -1.5960    0.4200   -2.1430 c3        1 MOL     -0.492247
    154 C54        -1.9640   -0.0670   -0.7540 c         1 MOL      0.710280
    155 O22        -1.1240   -0.2960    0.1300 o         1 MOL     -0.686058
    156 O23        -3.1440   -0.2440   -0.4610 o         1 MOL     -0.686058
    157 H67        -3.7190    1.6320   -0.6660 hn        1 MOL      0.212532
    158 H68        -3.0110    2.9910   -2.9240 h1        1 MOL      0.152261
    159 H69        -2.6420    0.7980   -4.0420 hc        1 MOL     -0.030520
    160 H70        -3.5340   -0.0430   -2.8440 hc        1 MOL     -0.030520
    161 H71        -0.9960    1.3320   -2.1100 hc        1 MOL      0.127898
    162 H72        -0.9870   -0.3350   -2.6420 hc        1 MOL      0.127898
    163 N14        -5.9590    1.6480   -3.3070 n         1 MOL     -0.268680
    164 C55        -7.2650    1.7850   -3.9680 c3        1 MOL     -0.201971
    165 H73        -7.9400    2.3510   -3.3260 h1        1 MOL      0.085387
    166 H74        -7.1400    2.3080   -4.9160 h1        1 MOL      0.085387
    167 H75        -7.6850    0.7960   -4.1520 h1        1 MOL      0.085387
    168 H76        -5.8920    1.1800   -2.4100 hn        1 MOL      0.226138
    169 Ca1         1.2520   -0.6790    0.8820 Ca        1 MOL      1.705713
    170 O24         1.1410    1.9780   -0.0250 oh        1 MOL     -0.858776
    171 H77         1.7990    2.6750    0.0050 ho        1 MOL      0.396024
    172 H78         0.3040    2.4320    0.0930 ho        1 MOL      0.396024
    173 O25         3.1280   -2.7470    1.5320 oh        1 MOL     -0.858776
    174 H79         2.8460   -3.6380    1.3480 ho        1 MOL      0.396024
    175 H80         3.2180   -2.7170    2.4890 ho        1 MOL      0.396024
    176 O26         3.4070   -0.7970   -0.8450 oh        1 MOL     -0.858776
    177 H81         4.0000   -0.0980   -0.5710 ho        1 MOL      0.396024
    178 H82         3.7120   -1.0450   -1.7160 ho        1 MOL      0.396024
@<TRIPOS>BOND
     1    1    2 1   
     2    1    4 1   
     3    1    5 1   
     4    1    6 1   
     5    2    3 2   
     6    2    7 1   
     7    7    8 1   
     8    7   15 1   
     9    8    9 1   
    10    8   11 1   
    11    8   16 1   
    12    9   10 2   
    13    9   19 1   
    14   11   12 1   
    15   11   17 1   
    16   11   18 1   
    17   12   13 1   
    18   12   14 1   
    19   19   20 1   
    20   19   24 1   
    21   20   21 1   
    22   20   23 1   
    23   20   25 1   
    24   21   22 2   
    25   21   29 1   
    26   23   26 1   
    27   23   27 1   
    28   23   28 1   
    29   29   30 1   
    30   29   37 1   
    31   30   31 1   
    32   30   33 1   
    33   30   38 1   
    34   31   32 2   
    35   31   41 1   
    36   33   34 1   
    37   33   39 1   
    38   33   40 1   
    39   34   35 1   
    40   34   36 1   
    41   41   42 1   
    42   41   45 1   
    43   42   43 1   
    44   42   46 1   
    45   42   47 1   
    46   43   44 2   
    47   43   48 1   
    48   48   49 1   
    49   48   56 1   
    50   49   50 1   
    51   49   52 1   
    52   49   57 1   
    53   50   51 2   
    54   50   62 1   
    55   52   53 1   
    56   52   58 1   
    57   52   59 1   
    58   53   54 1   
    59   53   55 2   
    60   54   60 1   
    61   54   61 1   
    62   62   63 1   
    63   62   66 1   
    64   63   64 1   
    65   63   67 1   
    66   63   68 1   
    67   64   65 2   
    68   64   69 1   
    69   69   70 1   
    70   69   76 1   
    71   70   71 1   
    72   70   73 1   
    73   70   77 1   
    74   71   72 2   
    75   71   83 1   
    76   73   74 1   
    77   73   75 1   
    78   73   78 1   
    79   74   80 1   
    80   74   81 1   
    81   74   82 1   
    82   75   79 1   
    83   83   84 1   
    84   83   91 1   
    85   84   85 1   
    86   84   87 1   
    87   84   92 1   
    88   85   86 2   
    89   85  102 1   
    90   87   88 1   
    91   87   89 1   
    92   87   93 1   
    93   88   90 1   
    94   88   94 1   
    95   88   95 1   
    96   89   96 1   
    97   89   97 1   
    98   89   98 1   
    99   90   99 1   
   100   90  100 1   
   101   90  101 1   
   102  102  103 1   
   103  102  110 1   
   104  103  104 1   
   105  103  106 1   
   106  103  111 1   
   107  104  105 2   
   108  104  114 1   
   109  106  107 1   
   110  106  112 1   
   111  106  113 1   
   112  107  108 1   
   113  107  109 1   
   114  114  115 1   
   115  114  125 1   
   116  115  116 1   
   117  115  118 1   
   118  115  126 1   
   119  116  117 2   
   120  116  134 1   
   121  118  119 1   
   122  118  127 1   
   123  118  128 1   
   124  119  120 ar  
   125  119  121 ar  
   126  120  122 ar  
   127  120  129 1   
   128  121  123 ar  
   129  121  130 1   
   130  122  124 ar  
   131  122  131 1   
   132  123  124 ar  
   133  123  132 1   
   134  124  133 1   
   135  134  135 1   
   136  134  140 1   
   137  135  136 1   
   138  135  138 1   
   139  135  141 1   
   140  136  137 2   
   141  136  148 1   
   142  138  139 1   
   143  138  142 1   
   144  138  143 1   
   145  139  140 1   
   146  139  144 1   
   147  139  145 1   
   148  140  146 1   
   149  140  147 1   
   150  148  149 1   
   151  148  157 1   
   152  149  150 1   
   153  149  152 1   
   154  149  158 1   
   155  150  151 2   
   156  150  163 1   
   157  152  153 1   
   158  152  159 1   
   159  152  160 1   
   160  153  154 1   
   161  153  161 1   
   162  153  162 1   
   163  154  155 1   
   164  154  156 1   
   165  163  164 1   
   166  163  168 1   
   167  164  165 1   
   168  164  166 1   
   169  164  167 1   
   170  170  171 1   
   171  170  172 1   
   172  173  174 1   
   173  173  175 1   
   174  176  177 1   
   175  176  178 1   
@<TRIPOS>SUBSTRUCTURE
     1 MOL         1 TEMP              0 ****  ****    0 ROOT
