@<TRIPOS>MOLECULE
MOL
  181   177     1     0     0
SMALL
resp


@<TRIPOS>ATOM
      1 C1         -6.3240    6.4310    4.2240 c3        1 MOL     -0.294418
      2 C2         -5.4350    5.5330    3.4130 c         1 MOL      0.734667
      3 O1         -4.3160    5.1630    3.8450 o         1 MOL     -0.572936
      4 H1         -6.9190    5.8290    4.9100 hc        1 MOL      0.065842
      5 H2         -5.7130    7.1310    4.7930 hc        1 MOL      0.065842
      6 H3         -6.9870    6.9850    3.5580 hc        1 MOL      0.065842
      7 N1         -5.9180    5.0480    2.2470 n         1 MOL     -0.799938
      8 C3         -7.3650    5.0680    1.7800 c3        1 MOL      0.443597
      9 C4         -7.3000    5.0480    0.3200 c         1 MOL      0.493756
     10 O2         -6.1850    5.0400   -0.2390 o         1 MOL     -0.456194
     11 C5         -8.3150    4.0140    2.3050 c3        1 MOL     -0.187809
     12 C6         -7.9340    2.6280    1.7130 c         1 MOL      0.753781
     13 O3         -8.5540    2.1730    0.7400 o         1 MOL     -0.723998
     14 O4         -6.9910    2.0120    2.2780 o         1 MOL     -0.723998
     15 H4         -5.2930    4.5030    1.6690 hn        1 MOL      0.431951
     16 H5         -7.9150    5.9800    2.0270 h1        1 MOL     -0.041114
     17 H6         -9.3510    4.2510    2.0700 hc        1 MOL      0.008756
     18 H7         -8.3270    4.0420    3.3950 hc        1 MOL      0.008756
     19 N2         -8.4270    5.1620   -0.4100 n         1 MOL     -0.723667
     20 C7         -8.5360    5.2660   -1.9000 c3        1 MOL      0.243782
     21 C8         -7.9460    4.0860   -2.7920 c         1 MOL      0.321631
     22 O5         -8.2930    3.9630   -3.9890 o         1 MOL     -0.578411
     23 C9         -7.8730    6.5870   -2.3490 c3        1 MOL     -0.420862
     24 H8         -9.2270    5.4010    0.1500 hn        1 MOL      0.369796
     25 H9         -9.6110    5.3220   -2.0810 h1        1 MOL      0.053013
     26 H10        -8.2280    7.3970   -1.7200 hc        1 MOL      0.123597
     27 H11        -6.7960    6.4910   -2.1840 hc        1 MOL      0.123597
     28 H12        -8.1390    6.7890   -3.3830 hc        1 MOL      0.123597
     29 N3         -7.1000    3.2240   -2.2990 n         1 MOL      0.092813
     30 C10        -6.3350    2.1370   -3.0130 c3        1 MOL     -0.101472
     31 C11        -7.0800    0.7790   -2.7970 c         1 MOL      0.636417
     32 O6         -7.9130    0.6480   -1.9230 o         1 MOL     -0.661150
     33 C12        -4.9020    2.0180   -2.5550 c3        1 MOL     -0.075568
     34 C13        -4.6380    1.8250   -1.1240 c         1 MOL      0.639462
     35 O7         -5.5130    1.2800   -0.4270 o         1 MOL     -0.646694
     36 O8         -3.5790    2.1430   -0.6150 o         1 MOL     -0.646694
     37 H13        -6.9600    3.3460   -1.3030 hn        1 MOL      0.012794
     38 H14        -6.4200    2.2340   -4.0930 h1        1 MOL      0.045830
     39 H15        -4.3040    2.8820   -2.8680 hc        1 MOL      0.024801
     40 H16        -4.4680    1.1760   -3.0970 hc        1 MOL      0.024801
     41 N4         -6.6040   -0.1520   -3.5970 n         1 MOL     -0.329034
     42 C14        -7.1630   -1.5460   -3.6930 c3        1 MOL     -0.492919
     43 C15        -6.7440   -2.4140   -2.4640 c         1 MOL      0.895506
     44 O9         -6.5360   -1.9010   -1.3430 o         1 MOL     -0.710509
     45 H17        -6.0300    0.1320   -4.3840 hn        1 MOL      0.304844
     46 H18        -6.7950   -1.8630   -4.6740 h1        1 MOL      0.192201
     47 H19        -8.2450   -1.5170   -3.7830 h1        1 MOL      0.192201
     48 N5         -6.6230   -3.7180   -2.7500 n         1 MOL     -0.595708
     49 C16        -6.2060   -4.6880   -1.7320 c3        1 MOL      0.270929
     50 C17        -4.7760   -4.2610   -1.2140 c         1 MOL      0.680036
     51 O10        -3.9340   -3.9310   -2.0210 o         1 MOL     -0.522622
     52 C18        -6.1190   -6.0990   -2.4200 c3        1 MOL     -0.518537
     53 C19        -7.5640   -6.5180   -2.7160 c         1 MOL      0.740377
     54 N6         -8.5090   -6.6320   -1.8280 n         1 MOL     -0.740724
     55 O11        -7.8210   -6.5740   -3.9280 o         1 MOL     -0.551966
     56 H20        -6.3930   -3.9560   -3.7040 hn        1 MOL      0.312531
     57 H21        -6.9500   -4.6370   -0.9350 h1        1 MOL     -0.122139
     58 H22        -5.6720   -6.8540   -1.7690 hc        1 MOL      0.171640
     59 H23        -5.4550   -6.0240   -3.2780 hc        1 MOL      0.171640
     60 H24        -8.3150   -6.3520   -0.8790 hn        1 MOL      0.329866
     61 H25        -9.1210   -7.4220   -1.9330 hn        1 MOL      0.329866
     62 N7         -4.5350   -4.2810    0.0680 n         1 MOL     -0.669115
     63 C20        -3.2940   -3.8650    0.7520 c3        1 MOL      0.068640
     64 C21        -2.2330   -4.9280    1.0560 c         1 MOL      0.662946
     65 O12        -2.2230   -6.0810    0.5270 o         1 MOL     -0.546578
     66 H26        -5.3000   -4.5360    0.6710 hn        1 MOL      0.288431
     67 H27        -3.5180   -3.4220    1.7150 h1        1 MOL      0.089779
     68 H28        -2.7070   -3.1280    0.2080 h1        1 MOL      0.089779
     69 N8         -1.2590   -4.6970    1.9880 n         1 MOL     -0.734488
     70 C22        -0.7620   -3.3840    2.3990 c3        1 MOL     -0.043811
     71 C23         0.5150   -2.9960    1.5760 c         1 MOL      0.695813
     72 O13         1.0880   -3.8730    0.8660 o         1 MOL     -0.521736
     73 C24        -0.4870   -3.3550    3.9290 c3        1 MOL      0.454414
     74 C25        -1.7590   -3.5920    4.7510 c3        1 MOL     -0.514444
     75 O14         0.3100   -4.4030    4.2810 oh        1 MOL     -0.557391
     76 H29        -0.7440   -5.4740    2.3790 hn        1 MOL      0.392507
     77 H30        -1.4910   -2.6060    2.1850 h1        1 MOL      0.049265
     78 H31        -0.1020   -2.4020    4.2880 h1        1 MOL     -0.003478
     79 H32         1.1880   -4.2890    3.9060 ho        1 MOL      0.364250
     80 H33        -2.4010   -2.7310    4.5830 hc        1 MOL      0.128033
     81 H34        -2.2100   -4.5300    4.4220 hc        1 MOL      0.128033
     82 H35        -1.6050   -3.7310    5.8250 hc        1 MOL      0.128033
     83 N9          1.0360   -1.7640    1.7510 n         1 MOL     -0.726241
     84 C26         2.3320   -1.3320    1.2730 c3        1 MOL      0.244308
     85 C27         3.2610   -0.7990    2.3250 c         1 MOL      0.500078
     86 O15         2.8150   -0.3620    3.3810 o         1 MOL     -0.580344
     87 C28         2.0100   -0.3180    0.1930 c3        1 MOL      0.252619
     88 C29         1.2860    1.0250    0.5310 c3        1 MOL     -0.188798
     89 C30         1.3030   -1.0370   -0.9340 c3        1 MOL     -0.242808
     90 C31        -0.2560    1.0760    0.7700 c3        1 MOL     -0.396833
     91 H36         0.5860   -1.1060    2.3660 hn        1 MOL      0.302366
     92 H37         2.8200   -2.1830    0.7900 h1        1 MOL      0.086406
     93 H38         2.9380    0.0480   -0.2360 hc        1 MOL     -0.085603
     94 H39         1.5130    1.7310   -0.2700 hc        1 MOL      0.107157
     95 H40         1.7620    1.4350    1.4200 hc        1 MOL      0.107157
     96 H41         1.5880   -0.6010   -1.8960 hc        1 MOL      0.053894
     97 H42         1.6040   -2.0840   -0.9700 hc        1 MOL      0.053894
     98 H43         0.2320   -1.0660   -0.7910 hc        1 MOL      0.053894
     99 H44        -0.5200    0.3100    1.4940 hc        1 MOL      0.111721
    100 H45        -0.5940    2.0640    1.0950 hc        1 MOL      0.111721
    101 H46        -0.8330    0.9470   -0.1550 hc        1 MOL      0.111721
    102 N10         4.6040   -0.9840    2.2740 n         1 MOL     -0.462318
    103 C32         5.4090   -1.7350    1.1940 c3        1 MOL      0.196137
    104 C33         6.8540   -1.0570    0.9660 c         1 MOL      0.530592
    105 O16         7.1960   -0.1110    1.6360 o         1 MOL     -0.523307
    106 C34         5.3340   -3.2200    1.4620 c3        1 MOL     -0.178708
    107 C35         5.8120   -3.6900    2.8590 c         1 MOL      0.613284
    108 O17         5.4270   -4.8430    3.3440 o         1 MOL     -0.640613
    109 O18         6.7070   -3.0480    3.4930 o         1 MOL     -0.640613
    110 H47         5.1690   -0.6730    3.0550 hn        1 MOL      0.308112
    111 H48         4.8220   -1.6680    0.2850 h1        1 MOL      0.011210
    112 H49         6.0020   -3.7330    0.7710 hc        1 MOL      0.023345
    113 H50         4.3580   -3.6480    1.2610 hc        1 MOL      0.023345
    114 N11         7.6350   -1.4870   -0.0620 n         1 MOL     -0.662614
    115 C36         8.9780   -0.8690   -0.4310 c3        1 MOL      0.664607
    116 C37         8.8920   -0.4030   -1.8740 c         1 MOL     -0.000802
    117 O19         8.2510   -1.0530   -2.7130 o         1 MOL     -0.457025
    118 C38        10.0370   -1.9260   -0.2630 c3        1 MOL     -0.451884
    119 C39        11.4290   -1.5880   -0.6870 ca        1 MOL      0.204531
    120 C40        11.8450   -1.8530   -1.9670 ca        1 MOL     -0.193658
    121 C41        12.2640   -0.8960    0.1160 ca        1 MOL     -0.193658
    122 C42        13.1430   -1.5200   -2.4470 ca        1 MOL     -0.134079
    123 C43        13.5090   -0.5440   -0.3510 ca        1 MOL     -0.134079
    124 C44        14.0360   -0.8730   -1.5920 ca        1 MOL     -0.103875
    125 H51         7.2000   -2.2800   -0.5130 hn        1 MOL      0.327737
    126 H52         9.1840    0.0430    0.1370 h1        1 MOL     -0.107506
    127 H53         9.7060   -2.8210   -0.7910 hc        1 MOL      0.132181
    128 H54        10.1290   -2.2250    0.7830 hc        1 MOL      0.132181
    129 H55        11.0870   -2.3020   -2.5810 ha        1 MOL      0.125954
    130 H56        12.0540   -0.6340    1.1440 ha        1 MOL      0.125954
    131 H57        13.3920   -1.5810   -3.5050 ha        1 MOL      0.097540
    132 H58        14.2410   -0.1290    0.3280 ha        1 MOL      0.097540
    133 H59        15.0520   -0.6800   -1.8860 ha        1 MOL      0.098380
    134 N12         9.6180    0.6800   -2.1880 n         1 MOL      0.536203
    135 C45        10.3280    1.6700   -1.3120 c3        1 MOL      0.015836
    136 C46         9.4110    2.5820   -0.4350 c         1 MOL      0.449582
    137 O20         9.9210    3.2160    0.4710 o         1 MOL     -0.588325
    138 C47        11.3160    2.4900   -2.1980 c3        1 MOL     -0.228664
    139 C48        10.6430    2.3420   -3.5060 c3        1 MOL      0.055243
    140 C49         9.9670    0.9130   -3.5510 c3        1 MOL     -0.449861
    141 H60        10.9960    1.1430   -0.6300 h1        1 MOL      0.025271
    142 H61        11.2780    3.5380   -1.9170 hc        1 MOL      0.067895
    143 H62        12.2750    1.9880   -2.2640 hc        1 MOL      0.067895
    144 H63         9.8250    3.0590   -3.6080 hc        1 MOL      0.025951
    145 H64        11.2770    2.6930   -4.3240 hc        1 MOL      0.025951
    146 H65         9.0390    0.9790   -4.1330 h1        1 MOL      0.113611
    147 H66        10.6890    0.1520   -3.8320 h1        1 MOL      0.113611
    148 N13         8.1180    2.6510   -0.7110 n         1 MOL     -0.230975
    149 C50         7.1670    3.3210    0.2130 c3        1 MOL      0.261906
    150 C51         7.3800    4.8540    0.3740 c         1 MOL      0.323924
    151 O21         7.1670    5.6110   -0.5700 o         1 MOL     -0.549585
    152 C52         5.7130    3.2580   -0.3160 c3        1 MOL     -0.062093
    153 C53         5.1950    1.8220   -0.3120 c3        1 MOL      0.311731
    154 C54         5.4620    1.0510   -1.5960 c         1 MOL      0.598467
    155 O22         6.3690    1.4190   -2.3770 o         1 MOL     -0.643290
    156 O23         4.7160    0.0450   -1.8780 o         1 MOL     -0.643290
    157 H67         7.8020    2.2200   -1.5680 hn        1 MOL      0.117177
    158 H68         7.3030    2.8560    1.1900 h1        1 MOL      0.058602
    159 H69         5.6710    3.6480   -1.3340 hc        1 MOL     -0.002204
    160 H70         5.1210    3.8580    0.3770 hc        1 MOL     -0.002204
    161 H71         4.1250    1.8670   -0.1340 hc        1 MOL     -0.171376
    162 H72         5.5440    1.2810    0.5650 hc        1 MOL     -0.171376
    163 N14         7.9780    5.4290    1.4660 n         1 MOL     -0.247969
    164 C55         8.3270    4.8820    2.7240 c3        1 MOL     -0.141315
    165 H73         7.8060    3.9350    2.8640 h1        1 MOL      0.061315
    166 H74         9.4030    4.7130    2.7610 h1        1 MOL      0.061315
    167 H75         8.0400    5.5740    3.5140 h1        1 MOL      0.061315
    168 H76         7.9440    6.4370    1.4860 hn        1 MOL      0.238428
    169 Ca1        -7.3370   -0.2580    0.4680 Ca        1 MOL      1.731682
    170 O24        -7.7020   -3.0120    1.4400 oh        1 MOL     -0.750897
    171 H77        -8.2090   -3.6540    0.9490 ho        1 MOL      0.362356
    172 H78        -7.3650   -3.4850    2.2010 ho        1 MOL      0.362356
    173 O25        -8.7560   -0.1800    2.8030 oh        1 MOL     -0.750897
    174 H79        -9.3230    0.4210    3.2790 ho        1 MOL      0.362356
    175 H80        -9.2880   -0.9680    2.6920 ho        1 MOL      0.362356
    176 O26        -9.8830   -1.2450    0.1020 oh        1 MOL     -0.750897
    177 H81       -10.6850   -1.0500    0.6040 ho        1 MOL      0.362356
    178 H82       -10.1750   -1.8220   -0.5960 ho        1 MOL      0.362356
    179 O27        -5.5310   -0.9960    2.2640 oh        1 MOL     -0.750897
    180 H83        -4.5970   -0.7920    2.1830 ho        1 MOL      0.362356
    181 H84        -5.5830   -1.5910    3.0140 ho        1 MOL      0.362356
@<TRIPOS>BOND
     1    1    2 1   
     2    1    4 1   
     3    1    5 1   
     4    1    6 1   
     5    2    3 2   
     6    2    7 1   
     7    7    8 1   
     8    7   15 1   
     9    8    9 1   
    10    8   11 1   
    11    8   16 1   
    12    9   10 2   
    13    9   19 1   
    14   11   12 1   
    15   11   17 1   
    16   11   18 1   
    17   12   13 1   
    18   12   14 1   
    19   19   20 1   
    20   19   24 1   
    21   20   21 1   
    22   20   23 1   
    23   20   25 1   
    24   21   22 2   
    25   21   29 1   
    26   23   26 1   
    27   23   27 1   
    28   23   28 1   
    29   29   30 1   
    30   29   37 1   
    31   30   31 1   
    32   30   33 1   
    33   30   38 1   
    34   31   32 2   
    35   31   41 1   
    36   33   34 1   
    37   33   39 1   
    38   33   40 1   
    39   34   35 1   
    40   34   36 1   
    41   41   42 1   
    42   41   45 1   
    43   42   43 1   
    44   42   46 1   
    45   42   47 1   
    46   43   44 2   
    47   43   48 1   
    48   48   49 1   
    49   48   56 1   
    50   49   50 1   
    51   49   52 1   
    52   49   57 1   
    53   50   51 2   
    54   50   62 1   
    55   52   53 1   
    56   52   58 1   
    57   52   59 1   
    58   53   54 1   
    59   53   55 2   
    60   54   60 1   
    61   54   61 1   
    62   62   63 1   
    63   62   66 1   
    64   63   64 1   
    65   63   67 1   
    66   63   68 1   
    67   64   65 2   
    68   64   69 1   
    69   69   70 1   
    70   69   76 1   
    71   70   71 1   
    72   70   73 1   
    73   70   77 1   
    74   71   72 2   
    75   71   83 1   
    76   73   74 1   
    77   73   75 1   
    78   73   78 1   
    79   74   80 1   
    80   74   81 1   
    81   74   82 1   
    82   75   79 1   
    83   83   84 1   
    84   83   91 1   
    85   84   85 1   
    86   84   87 1   
    87   84   92 1   
    88   85   86 2   
    89   85  102 1   
    90   87   88 1   
    91   87   89 1   
    92   87   93 1   
    93   88   90 1   
    94   88   94 1   
    95   88   95 1   
    96   89   96 1   
    97   89   97 1   
    98   89   98 1   
    99   90   99 1   
   100   90  100 1   
   101   90  101 1   
   102  102  103 1   
   103  102  110 1   
   104  103  104 1   
   105  103  106 1   
   106  103  111 1   
   107  104  105 2   
   108  104  114 1   
   109  106  107 1   
   110  106  112 1   
   111  106  113 1   
   112  107  108 1   
   113  107  109 1   
   114  114  115 1   
   115  114  125 1   
   116  115  116 1   
   117  115  118 1   
   118  115  126 1   
   119  116  117 2   
   120  116  134 1   
   121  118  119 1   
   122  118  127 1   
   123  118  128 1   
   124  119  120 ar  
   125  119  121 ar  
   126  120  122 ar  
   127  120  129 1   
   128  121  123 ar  
   129  121  130 1   
   130  122  124 ar  
   131  122  131 1   
   132  123  124 ar  
   133  123  132 1   
   134  124  133 1   
   135  134  135 1   
   136  134  140 1   
   137  135  136 1   
   138  135  138 1   
   139  135  141 1   
   140  136  137 2   
   141  136  148 1   
   142  138  139 1   
   143  138  142 1   
   144  138  143 1   
   145  139  140 1   
   146  139  144 1   
   147  139  145 1   
   148  140  146 1   
   149  140  147 1   
   150  148  149 1   
   151  148  157 1   
   152  149  150 1   
   153  149  152 1   
   154  149  158 1   
   155  150  151 2   
   156  150  163 1   
   157  152  153 1   
   158  152  159 1   
   159  152  160 1   
   160  153  154 1   
   161  153  161 1   
   162  153  162 1   
   163  154  155 1   
   164  154  156 1   
   165  163  164 1   
   166  163  168 1   
   167  164  165 1   
   168  164  166 1   
   169  164  167 1   
   170  170  171 1   
   171  170  172 1   
   172  173  174 1   
   173  173  175 1   
   174  176  177 1   
   175  176  178 1   
   176  179  180 1   
   177  179  181 1   
@<TRIPOS>SUBSTRUCTURE
     1 MOL         1 TEMP              0 ****  ****    0 ROOT
