@<TRIPOS>MOLECULE
MOL
  188   182     1     0     0
SMALL
resp


@<TRIPOS>ATOM
      1 C1          3.3760   -2.8700   -4.0020 c3        1 MOL     -0.349455
      2 C2          4.3800   -2.3200   -3.0620 c         1 MOL      0.774783
      3 O1          4.0440   -1.4610   -2.3030 o         1 MOL     -0.659603
      4 H1          2.3770   -2.5980   -3.6650 hc        1 MOL      0.083122
      5 H2          3.5470   -2.4610   -4.9980 hc        1 MOL      0.083122
      6 H3          3.4650   -3.9560   -4.0340 hc        1 MOL      0.083122
      7 N1          5.5680   -2.8940   -3.0580 n         1 MOL     -0.582326
      8 C3          6.6300   -2.7910   -2.0630 c3        1 MOL      0.187358
      9 C4          7.1950   -1.4060   -1.8280 c         1 MOL      0.425193
     10 O2          7.7190   -1.1510   -0.7310 o         1 MOL     -0.491764
     11 C5          6.3080   -3.5450   -0.7490 c3        1 MOL     -0.099685
     12 C6          5.9550   -5.0780   -1.0390 c         1 MOL      0.632484
     13 O3          5.6090   -5.7800   -0.0460 o         1 MOL     -0.661444
     14 O4          6.0110   -5.5740   -2.1980 o         1 MOL     -0.661444
     15 H4          5.6830   -3.5230   -3.8370 hn        1 MOL      0.286281
     16 H5          7.4160   -3.4330   -2.4470 h1        1 MOL      0.038410
     17 H6          5.4600   -3.1590   -0.1770 hc        1 MOL      0.031210
     18 H7          7.1660   -3.4670   -0.0850 hc        1 MOL      0.031210
     19 N2          7.0870   -0.4580   -2.7440 n         1 MOL     -0.463455
     20 C7          7.3980    0.9770   -2.4910 c3        1 MOL      0.153270
     21 C8          6.4660    1.6110   -1.3770 c         1 MOL      0.482385
     22 O5          6.8800    2.6330   -0.7760 o         1 MOL     -0.583293
     23 C9          7.2330    1.6710   -3.8780 c3        1 MOL     -0.175420
     24 C10         7.7250    3.1260   -3.8900 c3        1 MOL      0.106535
     25 C11         9.1640    3.3660   -3.5270 c3        1 MOL      0.028696
     26 C12         9.5660    4.8530   -3.7250 c3        1 MOL     -0.046458
     27 N3          9.0190    5.7940   -2.6850 n4        1 MOL     -0.196617
     28 H8          6.6620   -0.6720   -3.6270 hn        1 MOL      0.227890
     29 H9          8.4420    0.9440   -2.1740 h1        1 MOL      0.060910
     30 H10         6.1560    1.6730   -4.0440 hc        1 MOL      0.065441
     31 H11         7.6820    0.9880   -4.6010 hc        1 MOL      0.065441
     32 H12         7.1260    3.6550   -3.1410 hc        1 MOL     -0.023574
     33 H13         7.5750    3.5530   -4.8840 hc        1 MOL     -0.023574
     34 H14         9.6520    2.7410   -4.2670 hc        1 MOL      0.028340
     35 H15         9.3600    3.0090   -2.5110 hc        1 MOL      0.028340
     36 H16         9.2110    5.1360   -4.7070 hx        1 MOL      0.079138
     37 H17        10.6440    5.0130   -3.7240 hx        1 MOL      0.079138
     38 H18         9.1570    6.7030   -3.1130 hn        1 MOL      0.269473
     39 H19         8.0150    5.6870   -2.6270 hn        1 MOL      0.269473
     40 H20         9.4590    5.7610   -1.7740 hn        1 MOL      0.269473
     41 N4          5.3040    1.1070   -1.0810 n         1 MOL     -0.303266
     42 C13         4.3940    1.4160   -0.0140 c3        1 MOL     -0.034140
     43 C14         4.9200    0.9500    1.3640 c         1 MOL      0.473970
     44 O6          5.6130   -0.0350    1.4600 o         1 MOL     -0.428921
     45 C15         3.0930    0.7550   -0.2170 c3        1 MOL      0.040301
     46 C16         1.9570    1.0880    0.8010 c         1 MOL      0.649467
     47 O7          1.1610    2.0540    0.5140 o         1 MOL     -0.680807
     48 O8          1.9260    0.5800    1.9470 o         1 MOL     -0.680807
     49 H21         5.0300    0.3280   -1.6650 hn        1 MOL      0.281968
     50 H22         4.2340    2.4930   -0.0070 h1        1 MOL      0.073417
     51 H23         3.1520   -0.3330   -0.2010 hc        1 MOL      0.009067
     52 H24         2.6420    1.0590   -1.1600 hc        1 MOL      0.009067
     53 N5          4.6420    1.7050    2.3950 n         1 MOL     -0.192225
     54 C17         5.1100    1.4750    3.7930 c3        1 MOL     -0.586589
     55 C18         4.6940    0.1450    4.4840 c         1 MOL      0.642073
     56 O9          5.3370   -0.3290    5.3950 o         1 MOL     -0.559872
     57 H25         4.2140    2.5720    2.1060 hn        1 MOL      0.245588
     58 H26         4.6970    2.3290    4.3320 h1        1 MOL      0.222473
     59 H27         6.1940    1.3370    3.8020 h1        1 MOL      0.222473
     60 N6          3.6590   -0.4660    3.9160 n         1 MOL     -0.153124
     61 C19         3.0320   -1.6650    4.4110 c3        1 MOL     -0.025951
     62 C20         2.8610   -2.7500    3.3250 c         1 MOL      0.516956
     63 O10         2.8940   -3.9570    3.5730 o         1 MOL     -0.511458
     64 C21         1.7430   -1.1690    4.9570 c3        1 MOL     -0.095855
     65 C22         0.8130   -2.2160    5.4730 c         1 MOL      0.547683
     66 N7          1.0830   -2.6710    6.6540 n         1 MOL     -0.717301
     67 O11        -0.1730   -2.5970    4.8300 o         1 MOL     -0.552688
     68 H28         3.1010   -0.0020    3.2120 hn        1 MOL     -0.086029
     69 H29         3.6010   -2.0400    5.2680 h1        1 MOL      0.075673
     70 H30         1.2910   -0.6640    4.1070 hc        1 MOL      0.067006
     71 H31         1.8690   -0.3790    5.6980 hc        1 MOL      0.067006
     72 H32         1.8610   -2.2580    7.1430 hn        1 MOL      0.353873
     73 H33         0.3380   -3.2200    7.0530 hn        1 MOL      0.353873
     74 N8          2.8160   -2.2890    2.0830 n         1 MOL     -0.312559
     75 C23         2.4300   -3.1460    0.9210 c3        1 MOL      0.163265
     76 C24         0.9220   -3.3740    0.7370 c         1 MOL      0.680747
     77 O12         0.1820   -2.9460    1.6050 o         1 MOL     -0.540990
     78 H34         2.8690   -1.2920    1.9490 hn        1 MOL      0.200198
     79 H35         2.8760   -4.1410    1.0050 h1        1 MOL      0.031271
     80 H36         2.8140   -2.8350   -0.0580 h1        1 MOL      0.031271
     81 N9          0.4500   -4.0370   -0.3340 n         1 MOL     -0.785378
     82 C25        -0.9460   -4.0550   -0.6270 c3        1 MOL      0.538896
     83 C26        -1.3940   -2.6910   -1.3120 c         1 MOL      0.418103
     84 O13        -0.6310   -2.0570   -1.9890 o         1 MOL     -0.503058
     85 C27        -1.3210   -5.3140   -1.4810 c3        1 MOL     -0.140162
     86 C28        -2.7510   -5.4540   -1.7360 ca        1 MOL      0.064964
     87 C29        -3.7050   -5.4580   -0.6610 ca        1 MOL     -0.207266
     88 C30        -3.1650   -5.5590   -3.0540 ca        1 MOL     -0.207266
     89 C31        -5.0400   -5.4500   -0.9720 ca        1 MOL     -0.172287
     90 C32        -4.5640   -5.6590   -3.3140 ca        1 MOL     -0.172287
     91 C33        -5.4730   -5.4510   -2.3150 ca        1 MOL      0.287160
     92 O14        -6.8040   -5.5410   -2.5550 oh        1 MOL     -0.506997
     93 H37         1.1530   -4.2130   -1.0440 hn        1 MOL      0.348023
     94 H38        -1.4530   -4.1090    0.3380 h1        1 MOL     -0.045389
     95 H39        -0.9800   -6.2010   -0.9460 hc        1 MOL      0.064537
     96 H40        -0.8010   -5.2470   -2.4350 hc        1 MOL      0.064537
     97 H41        -3.3850   -5.5850    0.3600 ha        1 MOL      0.159106
     98 H42        -2.4640   -5.5780   -3.8780 ha        1 MOL      0.159106
     99 H43        -5.7130   -5.4570   -0.1340 ha        1 MOL      0.124224
    100 H44        -4.8920   -5.8550   -4.3240 ha        1 MOL      0.124224
    101 H45        -6.9230   -5.6620   -3.5040 ho        1 MOL      0.382368
    102 N10        -2.7290   -2.4500   -1.1980 n         1 MOL     -0.411422
    103 C34        -3.5180   -1.1610   -1.6060 c3        1 MOL      0.001868
    104 C35        -4.5040   -0.7420   -0.5280 c         1 MOL      0.279303
    105 O15        -4.5680    0.4590   -0.1750 o         1 MOL     -0.398354
    106 C36        -4.2060   -1.2120   -2.9560 c3        1 MOL      0.143897
    107 C37        -3.1500   -1.4070   -4.0600 c3        1 MOL     -0.077757
    108 C38        -5.1480   -0.0590   -3.3900 c3        1 MOL     -0.549575
    109 C39        -3.8010   -1.6690   -5.3910 c3        1 MOL     -0.090982
    110 H46        -3.2990   -3.1960   -0.8140 hn        1 MOL      0.104040
    111 H47        -2.6880   -0.4580   -1.7260 h1        1 MOL      0.132737
    112 H48        -4.8010   -2.1250   -2.9220 hc        1 MOL     -0.025067
    113 H49        -2.5060   -2.2580   -3.8490 hc        1 MOL      0.078797
    114 H50        -2.4760   -0.5670   -4.2350 hc        1 MOL      0.078797
    115 H51        -5.9240    0.0720   -2.6350 hc        1 MOL      0.160949
    116 H52        -4.4790    0.8060   -3.3900 hc        1 MOL      0.160949
    117 H53        -5.6480   -0.1480   -4.3570 hc        1 MOL      0.160949
    118 H54        -4.1450   -0.7660   -5.8970 hc        1 MOL      0.019490
    119 H55        -3.1480   -2.1550   -6.1160 hc        1 MOL      0.019490
    120 H56        -4.6400   -2.3610   -5.2870 hc        1 MOL      0.019490
    121 N11        -5.1750   -1.7010    0.0860 n         1 MOL     -0.264136
    122 C40        -6.1490   -1.4300    1.2290 c3        1 MOL      0.079068
    123 C41        -7.2740   -0.4830    0.8850 c         1 MOL      0.339074
    124 O16        -7.9180    0.0130    1.8270 o         1 MOL     -0.505582
    125 C42        -6.7730   -2.7370    1.6630 c3        1 MOL      0.226967
    126 O17        -5.7450   -3.6090    2.0550 oh        1 MOL     -0.624708
    127 H57        -5.1230   -2.6560   -0.2270 hn        1 MOL      0.289466
    128 H58        -5.6690   -0.9450    2.0770 h1        1 MOL      0.130287
    129 H59        -7.2440   -3.2560    0.8240 h1        1 MOL      0.010724
    130 H60        -7.4840   -2.5650    2.4810 h1        1 MOL      0.010724
    131 H61        -6.0940   -4.4910    2.1890 ho        1 MOL      0.423309
    132 N12        -7.5520   -0.1800   -0.3830 n         1 MOL     -0.452241
    133 C43        -8.3430    0.9780   -0.8470 c3        1 MOL      0.525853
    134 C44        -7.8190    2.3250   -0.4260 c         1 MOL      0.366631
    135 O18        -8.5560    3.2720   -0.6230 o         1 MOL     -0.541399
    136 C45        -9.7950    0.7010   -0.7080 c3        1 MOL     -0.631120
    137 H62        -7.0950   -0.7530   -1.0860 hn        1 MOL      0.241800
    138 H63        -8.1330    1.0210   -1.9190 h1        1 MOL     -0.014461
    139 H64       -10.0560   -0.0400   -1.4640 hc        1 MOL      0.166947
    140 H65       -10.0290    0.3920    0.3200 hc        1 MOL      0.166947
    141 H66       -10.3150    1.6530   -0.8280 hc        1 MOL      0.166947
    142 N13        -6.5960    2.4410    0.0780 n         1 MOL     -0.253659
    143 C46        -5.8280    3.6410    0.4170 c3        1 MOL      0.344773
    144 C47        -4.5640    3.9420   -0.5040 c         1 MOL      0.173613
    145 O19        -4.1260    3.2720   -1.4340 o         1 MOL     -0.381948
    146 C48        -5.2860    3.5990    1.8920 c3        1 MOL     -0.222507
    147 H67        -6.1050    1.5680   -0.0280 hn        1 MOL      0.047653
    148 H68        -6.4120    4.5610    0.3650 h1        1 MOL      0.011623
    149 H69        -4.6760    2.6950    1.9450 hc        1 MOL      0.062036
    150 H70        -4.7080    4.4990    2.0810 hc        1 MOL      0.062036
    151 H71        -6.0530    3.6960    2.6560 hc        1 MOL      0.062036
    152 N14        -4.0100    5.1630   -0.3270 n         1 MOL     -0.234860
    153 C49        -2.9190    5.7670   -0.9940 c3        1 MOL     -0.061475
    154 C50        -3.1110    5.7750   -2.5330 c         1 MOL      0.402700
    155 O20        -2.1250    5.6520   -3.2210 o         1 MOL     -0.494066
    156 C51        -1.5660    5.2510   -0.4190 c3        1 MOL      0.208746
    157 C52        -1.3050    5.7760    1.0150 c3        1 MOL     -0.056898
    158 C53         0.0730    5.3950    1.5630 c         1 MOL      0.557785
    159 O21         0.1140    4.5660    2.4860 o         1 MOL     -0.669916
    160 O22         1.1430    5.7730    0.9870 o         1 MOL     -0.669916
    161 H72        -4.4780    5.7530    0.3500 hn        1 MOL      0.197935
    162 H73        -2.8840    6.8230   -0.7270 h1        1 MOL      0.036856
    163 H74        -0.7710    5.7290   -1.0120 hc        1 MOL     -0.002175
    164 H75        -1.4320    4.1670   -0.5140 hc        1 MOL     -0.002175
    165 H76        -2.1010    5.4990    1.7000 hc        1 MOL     -0.015754
    166 H77        -1.2840    6.8650    1.0650 hc        1 MOL     -0.015754
    167 N15        -4.2780    5.7710   -3.0990 n         1 MOL     -0.164139
    168 C54        -4.5040    5.4500   -4.4510 c3        1 MOL     -0.294628
    169 H78        -5.5680    5.5400   -4.6720 h1        1 MOL      0.118142
    170 H79        -3.9430    6.1350   -5.0870 h1        1 MOL      0.118142
    171 H80        -4.1800    4.4270   -4.6420 h1        1 MOL      0.118142
    172 H81        -5.0950    5.9940   -2.5450 hn        1 MOL      0.198260
    173 Ca1        -0.2890    2.0060    2.6610 Ca        1 MOL      1.736665
    174 O23        -2.0230    1.6170    0.7400 oh        1 MOL     -0.864853
    175 H82        -1.9220    0.6860    0.5290 ho        1 MOL      0.414491
    176 H83        -2.9220    1.8320    0.4910 ho        1 MOL      0.414491
    177 O24        -2.5090    3.0660    3.7300 oh        1 MOL     -0.864853
    178 H84        -2.8210    3.8850    4.1200 ho        1 MOL      0.414491
    179 H85        -3.1090    2.3980    4.0780 ho        1 MOL      0.414491
    180 O25        -0.9390   -0.5610    2.4420 oh        1 MOL     -0.864853
    181 H86        -0.3530   -1.2690    2.1840 ho        1 MOL      0.414491
    182 H87        -1.6310   -0.9960    2.9320 ho        1 MOL      0.414491
    183 O26         1.5760    2.4970    4.5330 oh        1 MOL     -0.864853
    184 H88         2.2200    3.1560    4.2710 ho        1 MOL      0.414491
    185 H89         1.7360    2.3680    5.4650 ho        1 MOL      0.414491
    186 O27        -0.8830    0.8970    5.1520 oh        1 MOL     -0.864853
    187 H90        -0.9490    0.1920    5.7980 ho        1 MOL      0.414491
    188 H91        -1.1320    1.6830    5.6330 ho        1 MOL      0.414491
@<TRIPOS>BOND
     1    1    2 1   
     2    1    4 1   
     3    1    5 1   
     4    1    6 1   
     5    2    3 2   
     6    2    7 1   
     7    7    8 1   
     8    7   15 1   
     9    8    9 1   
    10    8   11 1   
    11    8   16 1   
    12    9   10 2   
    13    9   19 1   
    14   11   12 1   
    15   11   17 1   
    16   11   18 1   
    17   12   13 1   
    18   12   14 1   
    19   19   20 1   
    20   19   28 1   
    21   20   21 1   
    22   20   23 1   
    23   20   29 1   
    24   21   22 2   
    25   21   41 1   
    26   23   24 1   
    27   23   30 1   
    28   23   31 1   
    29   24   25 1   
    30   24   32 1   
    31   24   33 1   
    32   25   26 1   
    33   25   34 1   
    34   25   35 1   
    35   26   27 1   
    36   26   36 1   
    37   26   37 1   
    38   27   38 1   
    39   27   39 1   
    40   27   40 1   
    41   41   42 1   
    42   41   49 1   
    43   42   43 1   
    44   42   45 1   
    45   42   50 1   
    46   43   44 2   
    47   43   53 1   
    48   45   46 1   
    49   45   51 1   
    50   45   52 1   
    51   46   47 1   
    52   46   48 1   
    53   53   54 1   
    54   53   57 1   
    55   54   55 1   
    56   54   58 1   
    57   54   59 1   
    58   55   56 2   
    59   55   60 1   
    60   60   61 1   
    61   60   68 1   
    62   61   62 1   
    63   61   64 1   
    64   61   69 1   
    65   62   63 2   
    66   62   74 1   
    67   64   65 1   
    68   64   70 1   
    69   64   71 1   
    70   65   66 1   
    71   65   67 2   
    72   66   72 1   
    73   66   73 1   
    74   74   75 1   
    75   74   78 1   
    76   75   76 1   
    77   75   79 1   
    78   75   80 1   
    79   76   77 2   
    80   76   81 1   
    81   81   82 1   
    82   81   93 1   
    83   82   83 1   
    84   82   85 1   
    85   82   94 1   
    86   83   84 2   
    87   83  102 1   
    88   85   86 1   
    89   85   95 1   
    90   85   96 1   
    91   86   87 ar  
    92   86   88 ar  
    93   87   89 ar  
    94   87   97 1   
    95   88   90 ar  
    96   88   98 1   
    97   89   91 ar  
    98   89   99 1   
    99   90   91 ar  
   100   90  100 1   
   101   91   92 1   
   102   92  101 1   
   103  102  103 1   
   104  102  110 1   
   105  103  104 1   
   106  103  106 1   
   107  103  111 1   
   108  104  105 2   
   109  104  121 1   
   110  106  107 1   
   111  106  108 1   
   112  106  112 1   
   113  107  109 1   
   114  107  113 1   
   115  107  114 1   
   116  108  115 1   
   117  108  116 1   
   118  108  117 1   
   119  109  118 1   
   120  109  119 1   
   121  109  120 1   
   122  121  122 1   
   123  121  127 1   
   124  122  123 1   
   125  122  125 1   
   126  122  128 1   
   127  123  124 2   
   128  123  132 1   
   129  125  126 1   
   130  125  129 1   
   131  125  130 1   
   132  126  131 1   
   133  132  133 1   
   134  132  137 1   
   135  133  134 1   
   136  133  136 1   
   137  133  138 1   
   138  134  135 2   
   139  134  142 1   
   140  136  139 1   
   141  136  140 1   
   142  136  141 1   
   143  142  143 1   
   144  142  147 1   
   145  143  144 1   
   146  143  146 1   
   147  143  148 1   
   148  144  145 2   
   149  144  152 1   
   150  146  149 1   
   151  146  150 1   
   152  146  151 1   
   153  152  153 1   
   154  152  161 1   
   155  153  154 1   
   156  153  156 1   
   157  153  162 1   
   158  154  155 2   
   159  154  167 1   
   160  156  157 1   
   161  156  163 1   
   162  156  164 1   
   163  157  158 1   
   164  157  165 1   
   165  157  166 1   
   166  158  159 1   
   167  158  160 1   
   168  167  168 1   
   169  167  172 1   
   170  168  169 1   
   171  168  170 1   
   172  168  171 1   
   173  174  175 1   
   174  174  176 1   
   175  177  178 1   
   176  177  179 1   
   177  180  181 1   
   178  180  182 1   
   179  183  184 1   
   180  183  185 1   
   181  186  187 1   
   182  186  188 1   
@<TRIPOS>SUBSTRUCTURE
     1 MOL         1 TEMP              0 ****  ****    0 ROOT
