@<TRIPOS>MOLECULE
MOL
  189   185     1     0     0
SMALL
resp


@<TRIPOS>ATOM
      1 C1          9.1250    2.0350    1.1220 c3        1 MOL     -0.451128
      2 C2          7.9070    1.3660    0.4950 c         1 MOL      0.707699
      3 O1          6.9590    0.9920    1.0790 o         1 MOL     -0.628263
      4 H1          8.7960    2.7920    1.8350 hc        1 MOL      0.113865
      5 H2          9.7250    1.2870    1.6400 hc        1 MOL      0.113865
      6 H3          9.7230    2.5060    0.3420 hc        1 MOL      0.113865
      7 N1          8.1780    0.7790   -0.6790 n         1 MOL     -0.442402
      8 C3          7.2410    0.2910   -1.6230 c3        1 MOL     -0.119973
      9 C4          6.9110   -1.2390   -1.3070 c         1 MOL      0.445368
     10 O2          6.5460   -1.9950   -2.2140 o         1 MOL     -0.414123
     11 C5          7.7050    0.5650   -3.0700 c3        1 MOL     -0.294214
     12 C6          8.9660   -0.2070   -3.4460 c         1 MOL      0.738993
     13 O3          9.2370   -0.2250   -4.6740 o         1 MOL     -0.649175
     14 O4          9.7640   -0.7500   -2.6490 o         1 MOL     -0.649175
     15 H4          9.1300    0.7620   -1.0230 hn        1 MOL      0.244738
     16 H5          6.3520    0.9120   -1.5010 h1        1 MOL      0.191626
     17 H6          7.8380    1.6350   -3.2050 hc        1 MOL      0.111139
     18 H7          6.9060    0.2520   -3.7330 hc        1 MOL      0.111139
     19 N2          6.8760   -1.6880   -0.0090 n         1 MOL     -0.363233
     20 C7          6.5060   -3.0840    0.4730 c3        1 MOL      0.192103
     21 C8          5.0730   -3.4990    0.2010 c         1 MOL      0.405586
     22 O5          4.8530   -4.5340   -0.3670 o         1 MOL     -0.499379
     23 C9          6.9330   -3.2230    1.9310 c3        1 MOL     -0.266796
     24 C10         8.2720   -2.5630    2.3470 c3        1 MOL      0.053174
     25 C11         8.6820   -3.0440    3.7490 c3        1 MOL      0.004802
     26 C12        10.1440   -2.6860    4.1630 c3        1 MOL     -0.093876
     27 N3         11.0520   -3.4970    3.3460 n4        1 MOL     -0.282419
     28 H8          7.1990   -0.9600    0.6130 hn        1 MOL      0.131495
     29 H9          7.0590   -3.8640   -0.0490 h1        1 MOL      0.050808
     30 H10         7.0160   -4.2970    2.1320 hc        1 MOL      0.081082
     31 H11         6.1310   -2.8300    2.5530 hc        1 MOL      0.081082
     32 H12         8.2870   -1.4770    2.4460 hc        1 MOL      0.042544
     33 H13         9.0940   -2.7730    1.6590 hc        1 MOL      0.042544
     34 H14         8.5580   -4.1340    3.7420 hc        1 MOL      0.032087
     35 H15         7.9880   -2.6280    4.4770 hc        1 MOL      0.032087
     36 H16        10.2580   -2.8300    5.2420 hx        1 MOL      0.113274
     37 H17        10.3290   -1.6340    3.9540 hx        1 MOL      0.113274
     38 H18        12.0270   -3.3170    3.5410 hn        1 MOL      0.276706
     39 H19        10.8890   -4.4780    3.5280 hn        1 MOL      0.276706
     40 H20        11.0810   -3.3110    2.3580 hn        1 MOL      0.276706
     41 N4          4.0480   -2.6430    0.3950 n         1 MOL     -0.349395
     42 C13         4.1100   -1.3180    1.0460 c3        1 MOL      0.061335
     43 C14         4.0780   -0.1880   -0.0540 c         1 MOL      0.216228
     44 O6          3.9130   -0.4240   -1.2290 o         1 MOL     -0.379253
     45 C15         3.0160   -1.1910    2.1320 c3        1 MOL     -0.320735
     46 C16         1.6250   -1.5270    1.6190 c         1 MOL      0.760209
     47 O7          1.0070   -0.6470    0.9090 o         1 MOL     -0.683998
     48 O8          1.2000   -2.7230    1.9010 o         1 MOL     -0.683998
     49 H21         3.1000   -2.9060    0.1690 hn        1 MOL      0.340311
     50 H22         5.0900   -1.1520    1.4990 h1        1 MOL      0.140504
     51 H23         3.0470   -0.1650    2.5170 hc        1 MOL      0.043386
     52 H24         3.2560   -1.9390    2.8880 hc        1 MOL      0.043386
     53 N5          4.2400    1.0310    0.4350 n         1 MOL     -0.184746
     54 C17         4.0610    2.2880   -0.3410 c3        1 MOL     -0.177285
     55 C18         2.7190    2.4780   -1.0590 c         1 MOL      0.645727
     56 O9          1.7750    1.7890   -0.7860 o         1 MOL     -0.563387
     57 H25         4.5610    1.1110    1.3830 hn        1 MOL      0.278104
     58 H26         4.8160    2.4570   -1.1080 h1        1 MOL      0.074708
     59 H27         4.0990    3.1230    0.3650 h1        1 MOL      0.074708
     60 N6          2.6340    3.3820   -2.0530 n         1 MOL     -0.465969
     61 C19         1.4770    3.9910   -2.6290 c3        1 MOL      0.171697
     62 C20         1.6260    5.4920   -2.8840 c         1 MOL      0.464858
     63 O10         2.7670    6.0870   -2.9250 o         1 MOL     -0.547798
     64 C21         1.0370    3.2660   -3.9700 c3        1 MOL     -0.437920
     65 C22         0.7100    1.7420   -3.7750 c         1 MOL      0.741441
     66 O11        -0.3790    1.4240   -3.2100 o         1 MOL     -0.678495
     67 O12         1.4850    0.9010   -4.2960 o         1 MOL     -0.678495
     68 H28         3.4850    3.8420   -2.3340 hn        1 MOL      0.277762
     69 H29         0.6470    4.0080   -1.9120 h1        1 MOL      0.045647
     70 H30         1.8620    3.4400   -4.6650 hc        1 MOL      0.139198
     71 H31         0.2170    3.7660   -4.4880 hc        1 MOL      0.139198
     72 N7          0.5670    6.1800   -3.2310 n         1 MOL     -0.424957
     73 C23        -0.8050    5.9110   -2.9870 c3        1 MOL      0.044257
     74 C24        -1.3540    5.9390   -1.5580 c         1 MOL      0.618336
     75 O13        -0.7410    6.5630   -0.6930 o         1 MOL     -0.512526
     76 H32         0.6990    7.1580   -3.4670 hn        1 MOL      0.312520
     77 H33        -0.9450    4.8990   -3.3690 h1        1 MOL      0.026910
     78 H34        -1.3850    6.6150   -3.5730 h1        1 MOL      0.026910
     79 N8         -2.4170    5.1510   -1.3370 n         1 MOL     -0.649887
     80 C25        -2.8550    4.8140   -0.0120 c3        1 MOL      0.095299
     81 C26        -1.8700    3.8120    0.6880 c         1 MOL      0.739422
     82 O14        -1.1150    3.0850    0.0100 o         1 MOL     -0.627428
     83 C27        -4.3140    4.4330    0.1650 c3        1 MOL      0.384135
     84 C28        -4.8740    3.2660   -0.6380 c3        1 MOL     -0.291152
     85 O15        -5.1380    5.5290   -0.0960 oh        1 MOL     -0.644974
     86 H35        -2.8740    4.5860   -2.0400 hn        1 MOL      0.324189
     87 H36        -2.7150    5.7170    0.5860 h1        1 MOL      0.053907
     88 H37        -4.5180    4.2690    1.2250 h1        1 MOL      0.008794
     89 H38        -5.4380    5.4850   -1.0060 ho        1 MOL      0.395271
     90 H39        -4.6720    3.3890   -1.7000 hc        1 MOL      0.060765
     91 H40        -4.3980    2.3350   -0.3130 hc        1 MOL      0.060765
     92 H41        -5.9440    3.2580   -0.4450 hc        1 MOL      0.060765
     93 N9         -1.9930    3.7030    2.0280 n         1 MOL     -0.736440
     94 C29        -1.2750    2.7010    2.8910 c3        1 MOL      0.321189
     95 C30        -1.8250    1.2940    2.5880 c         1 MOL      0.320131
     96 O16        -1.8690    0.7590    1.4910 o         1 MOL     -0.416328
     97 C31         0.2530    2.8670    2.9400 c3        1 MOL      0.031447
     98 C32         0.6950    4.3180    3.3550 c3        1 MOL     -0.172028
     99 C33         0.7810    1.8410    4.0310 c3        1 MOL     -0.513519
    100 C34        -0.0590    5.1410    4.4100 c3        1 MOL     -0.221751
    101 H42        -2.7560    4.2000    2.4790 hn        1 MOL      0.318473
    102 H43        -1.6540    3.0610    3.8470 h1        1 MOL      0.032564
    103 H44         0.6300    2.6820    1.9370 hc        1 MOL      0.048169
    104 H45         0.6270    4.8640    2.4050 hc        1 MOL      0.102798
    105 H46         1.7550    4.3430    3.6080 hc        1 MOL      0.102798
    106 H47         0.4380    2.1810    5.0070 hc        1 MOL      0.149029
    107 H48         0.4340    0.8250    3.8660 hc        1 MOL      0.149029
    108 H49         1.8650    1.8340    4.1560 hc        1 MOL      0.149029
    109 H50        -1.1410    5.1850    4.3010 hc        1 MOL      0.068550
    110 H51         0.1320    4.8240    5.4340 hc        1 MOL      0.068550
    111 H52         0.3160    6.1690    4.3400 hc        1 MOL      0.068550
    112 N10        -2.2700    0.6400    3.6520 n         1 MOL     -0.418611
    113 C35        -2.5080   -0.8200    3.6560 c3        1 MOL     -0.263388
    114 C36        -3.6690   -1.1230    2.8030 c         1 MOL      0.432979
    115 O17        -3.8810   -2.2890    2.4680 o         1 MOL     -0.529333
    116 C37        -2.6470   -1.4650    5.0270 c3        1 MOL      0.638534
    117 C38        -3.9440   -0.9950    5.7770 c3        1 MOL     -0.355058
    118 O18        -1.5910   -1.1770    5.8770 oh        1 MOL     -0.636935
    119 H53        -2.4970    1.2230    4.4430 hn        1 MOL      0.267322
    120 H54        -1.5820   -1.2480    3.2830 h1        1 MOL      0.136524
    121 H55        -2.6350   -2.5570    5.0220 h1        1 MOL     -0.028703
    122 H56        -0.9550   -1.8480    5.6250 ho        1 MOL      0.393195
    123 H57        -3.8150   -1.4260    6.7640 hc        1 MOL      0.083586
    124 H58        -4.0900    0.0730    5.9480 hc        1 MOL      0.083586
    125 H59        -4.7790   -1.5490    5.3470 hc        1 MOL      0.083586
    126 N11        -4.6310   -0.2200    2.5770 n         1 MOL     -0.001320
    127 C39        -6.0060   -0.5420    2.1040 c3        1 MOL     -0.692411
    128 C40        -5.7950   -0.9280    0.6300 c         1 MOL      0.833148
    129 O19        -5.0930   -0.2920   -0.1810 o         1 MOL     -0.512188
    130 C41        -7.0800    0.4590    2.4070 c3        1 MOL      0.542562
    131 C42        -7.2810    0.6370    3.8930 c3        1 MOL     -0.426792
    132 O20        -6.9390    1.6560    1.8800 oh        1 MOL     -0.607941
    133 H60        -4.4540    0.7600    2.7000 hn        1 MOL      0.166633
    134 H61        -6.3020   -1.4040    2.7030 h1        1 MOL      0.199745
    135 H62        -8.0400   -0.0030    2.1860 h1        1 MOL      0.044924
    136 H63        -6.2300    2.0990    2.3550 ho        1 MOL      0.406443
    137 H64        -7.2390   -0.3500    4.3350 hc        1 MOL      0.102156
    138 H65        -6.4470    1.2010    4.3250 hc        1 MOL      0.102156
    139 H66        -8.2470    1.1240    4.0160 hc        1 MOL      0.102156
    140 N12        -6.4350   -2.0710    0.3360 n         1 MOL     -0.586306
    141 C43        -6.6690   -2.6400   -0.9700 c3        1 MOL      0.202690
    142 C44        -5.3060   -2.8280   -1.7390 c         1 MOL      0.448773
    143 O21        -5.1240   -2.5210   -2.9000 o         1 MOL     -0.498139
    144 C45        -7.7730   -1.8650   -1.7080 c3        1 MOL     -0.474596
    145 C46        -9.0550   -1.9880   -0.8800 c3        1 MOL      0.254667
    146 C47       -10.2920   -1.6310   -1.7790 c3        1 MOL      0.033649
    147 C48       -11.4740   -1.5040   -0.8950 c3        1 MOL     -0.041719
    148 N13       -12.6480   -1.1940   -1.7200 n4        1 MOL     -0.055092
    149 H67        -6.8200   -2.5820    1.1100 hn        1 MOL      0.292180
    150 H68        -7.0340   -3.6570   -0.8030 h1        1 MOL      0.077737
    151 H69        -7.9070   -2.4380   -2.6380 hc        1 MOL      0.140703
    152 H70        -7.4470   -0.8530   -1.9230 hc        1 MOL      0.140703
    153 H71        -9.0980   -1.3100   -0.0260 hc        1 MOL     -0.036663
    154 H72        -9.1210   -2.9920   -0.4780 hc        1 MOL     -0.036663
    155 H73       -10.3680   -2.4070   -2.5400 hc        1 MOL      0.019726
    156 H74       -10.1340   -0.6670   -2.2630 hc        1 MOL      0.019726
    157 H75       -11.2680   -0.7380   -0.1420 hx        1 MOL      0.062265
    158 H76       -11.6370   -2.4950   -0.4750 hx        1 MOL      0.062265
    159 H77       -13.4780   -0.8940   -1.2160 hn        1 MOL      0.155121
    160 H78       -12.3620   -0.4040   -2.2780 hn        1 MOL      0.155121
    161 H79       -12.9940   -1.9430   -2.3120 hn        1 MOL      0.155121
    162 N14        -4.2150   -3.2580   -1.0780 n         1 MOL     -0.526832
    163 C49        -2.8260   -3.3310   -1.7390 c3        1 MOL      0.288350
    164 C50        -1.7510   -2.8830   -0.7570 c         1 MOL      0.477443
    165 O22        -1.2820   -1.7490   -0.8190 o         1 MOL     -0.627316
    166 C51        -2.5710   -4.7690   -2.1820 c3        1 MOL     -0.056688
    167 C52        -3.2400   -5.1360   -3.4660 c3        1 MOL     -0.216368
    168 C53        -2.9860   -6.5460   -3.9470 c         1 MOL      0.687868
    169 O23        -2.0810   -6.8720   -4.7570 o         1 MOL     -0.612268
    170 O24        -3.8680   -7.3970   -3.5970 o         1 MOL     -0.612268
    171 H80        -4.3500   -3.2960   -0.0780 hn        1 MOL      0.285455
    172 H81        -2.7790   -2.6040   -2.5450 h1        1 MOL      0.065672
    173 H82        -2.9260   -5.5270   -1.4840 hc        1 MOL      0.039796
    174 H83        -1.4980   -4.9110   -2.3000 hc        1 MOL      0.039796
    175 H84        -2.9010   -4.3700   -4.1640 hc        1 MOL      0.052322
    176 H85        -4.3030   -4.9890   -3.3180 hc        1 MOL      0.052322
    177 N15        -1.2500   -3.6070    0.3060 n         1 MOL     -0.364946
    178 C54        -1.5580   -4.9330    0.9380 c3        1 MOL     -0.064901
    179 H86        -0.7480   -5.6320    0.7280 h1        1 MOL      0.056835
    180 H87        -1.6580   -4.8080    2.0160 h1        1 MOL      0.056835
    181 H88        -2.4890   -5.3240    0.5280 h1        1 MOL      0.056835
    182 H89        -0.4800   -3.0750    0.6960 hn        1 MOL      0.327154
    183 Ca1        -0.4920    0.6100   -0.7930 Ca        1 MOL      1.650883
    184 O25         1.3710   -0.9970   -2.2680 oh        1 MOL     -0.931736
    185 H90         1.3430   -0.5700   -3.1180 ho        1 MOL      0.446745
    186 H91         2.2710   -0.9210   -1.9780 ho        1 MOL      0.446745
    187 O26        -3.0850    0.6200   -1.7480 oh        1 MOL     -0.931736
    188 H92        -3.7840    0.1370   -1.3090 ho        1 MOL      0.446745
    189 H93        -3.5260    1.1000   -2.4480 ho        1 MOL      0.446745
@<TRIPOS>BOND
     1    1    2 1   
     2    1    4 1   
     3    1    5 1   
     4    1    6 1   
     5    2    3 2   
     6    2    7 1   
     7    7    8 1   
     8    7   15 1   
     9    8    9 1   
    10    8   11 1   
    11    8   16 1   
    12    9   10 2   
    13    9   19 1   
    14   11   12 1   
    15   11   17 1   
    16   11   18 1   
    17   12   13 1   
    18   12   14 1   
    19   19   20 1   
    20   19   28 1   
    21   20   21 1   
    22   20   23 1   
    23   20   29 1   
    24   21   22 2   
    25   21   41 1   
    26   23   24 1   
    27   23   30 1   
    28   23   31 1   
    29   24   25 1   
    30   24   32 1   
    31   24   33 1   
    32   25   26 1   
    33   25   34 1   
    34   25   35 1   
    35   26   27 1   
    36   26   36 1   
    37   26   37 1   
    38   27   38 1   
    39   27   39 1   
    40   27   40 1   
    41   41   42 1   
    42   41   49 1   
    43   42   43 1   
    44   42   45 1   
    45   42   50 1   
    46   43   44 2   
    47   43   53 1   
    48   45   46 1   
    49   45   51 1   
    50   45   52 1   
    51   46   47 1   
    52   46   48 1   
    53   53   54 1   
    54   53   57 1   
    55   54   55 1   
    56   54   58 1   
    57   54   59 1   
    58   55   56 2   
    59   55   60 1   
    60   60   61 1   
    61   60   68 1   
    62   61   62 1   
    63   61   64 1   
    64   61   69 1   
    65   62   63 2   
    66   62   72 1   
    67   64   65 1   
    68   64   70 1   
    69   64   71 1   
    70   65   66 1   
    71   65   67 1   
    72   72   73 1   
    73   72   76 1   
    74   73   74 1   
    75   73   77 1   
    76   73   78 1   
    77   74   75 2   
    78   74   79 1   
    79   79   80 1   
    80   79   86 1   
    81   80   81 1   
    82   80   83 1   
    83   80   87 1   
    84   81   82 2   
    85   81   93 1   
    86   83   84 1   
    87   83   85 1   
    88   83   88 1   
    89   84   90 1   
    90   84   91 1   
    91   84   92 1   
    92   85   89 1   
    93   93   94 1   
    94   93  101 1   
    95   94   95 1   
    96   94   97 1   
    97   94  102 1   
    98   95   96 2   
    99   95  112 1   
   100   97   98 1   
   101   97   99 1   
   102   97  103 1   
   103   98  100 1   
   104   98  104 1   
   105   98  105 1   
   106   99  106 1   
   107   99  107 1   
   108   99  108 1   
   109  100  109 1   
   110  100  110 1   
   111  100  111 1   
   112  112  113 1   
   113  112  119 1   
   114  113  114 1   
   115  113  116 1   
   116  113  120 1   
   117  114  115 2   
   118  114  126 1   
   119  116  117 1   
   120  116  118 1   
   121  116  121 1   
   122  117  123 1   
   123  117  124 1   
   124  117  125 1   
   125  118  122 1   
   126  126  127 1   
   127  126  133 1   
   128  127  128 1   
   129  127  130 1   
   130  127  134 1   
   131  128  129 2   
   132  128  140 1   
   133  130  131 1   
   134  130  132 1   
   135  130  135 1   
   136  131  137 1   
   137  131  138 1   
   138  131  139 1   
   139  132  136 1   
   140  140  141 1   
   141  140  149 1   
   142  141  142 1   
   143  141  144 1   
   144  141  150 1   
   145  142  143 2   
   146  142  162 1   
   147  144  145 1   
   148  144  151 1   
   149  144  152 1   
   150  145  146 1   
   151  145  153 1   
   152  145  154 1   
   153  146  147 1   
   154  146  155 1   
   155  146  156 1   
   156  147  148 1   
   157  147  157 1   
   158  147  158 1   
   159  148  159 1   
   160  148  160 1   
   161  148  161 1   
   162  162  163 1   
   163  162  171 1   
   164  163  164 1   
   165  163  166 1   
   166  163  172 1   
   167  164  165 2   
   168  164  177 1   
   169  166  167 1   
   170  166  173 1   
   171  166  174 1   
   172  167  168 1   
   173  167  175 1   
   174  167  176 1   
   175  168  169 1   
   176  168  170 1   
   177  177  178 1   
   178  177  182 1   
   179  178  179 1   
   180  178  180 1   
   181  178  181 1   
   182  184  185 1   
   183  184  186 1   
   184  187  188 1   
   185  187  189 1   
@<TRIPOS>SUBSTRUCTURE
     1 MOL         1 TEMP              0 ****  ****    0 ROOT
