@<TRIPOS>MOLECULE
MOL
  181   177     1     0     0
SMALL
resp


@<TRIPOS>ATOM
      1 C1          6.6360   -4.4590    5.1370 c3        1 MOL     -0.291237
      2 C2          5.8620   -3.4870    4.2730 c         1 MOL      0.708954
      3 O1          5.3070   -2.5190    4.8250 o         1 MOL     -0.605093
      4 H1          6.8540   -3.9950    6.0990 hc        1 MOL      0.060654
      5 H2          6.0420   -5.3590    5.2940 hc        1 MOL      0.060654
      6 H3          7.5710   -4.7210    4.6410 hc        1 MOL      0.060654
      7 N1          5.7880   -3.6020    2.9880 n         1 MOL     -0.396325
      8 C3          6.3430   -4.5490    2.0610 c3        1 MOL     -0.051190
      9 C4          5.4350   -5.1740    1.0680 c         1 MOL      0.461514
     10 O2          4.2750   -5.3790    1.3810 o         1 MOL     -0.408484
     11 C5          7.5950   -3.9290    1.3790 c3        1 MOL     -0.024480
     12 C6          7.2830   -2.6460    0.5810 c         1 MOL      0.650430
     13 O3          7.0870   -2.7040   -0.6340 o         1 MOL     -0.731327
     14 O4          7.4110   -1.5530    1.1540 o         1 MOL     -0.731327
     15 H4          5.1020   -2.9690    2.6070 hn        1 MOL      0.247677
     16 H5          6.7850   -5.4430    2.5170 h1        1 MOL      0.079536
     17 H6          8.1170   -4.6370    0.7350 hc        1 MOL     -0.003992
     18 H7          8.3410   -3.7140    2.1450 hc        1 MOL     -0.003992
     19 N2          5.8990   -5.4730   -0.1740 n         1 MOL     -0.527928
     20 C7          5.0220   -5.8940   -1.3180 c3        1 MOL      0.333304
     21 C8          3.8130   -5.0120   -1.5130 c         1 MOL      0.365209
     22 O5          2.6440   -5.4410   -1.5300 o         1 MOL     -0.464889
     23 C9          4.7300   -7.2920   -1.1520 c3        1 MOL     -0.426026
     24 H8          6.8980   -5.4020   -0.3000 hn        1 MOL      0.309103
     25 H9          5.6190   -5.8010   -2.2260 h1        1 MOL     -0.001198
     26 H10         4.1690   -7.6120   -2.0360 hc        1 MOL      0.102520
     27 H11         5.6070   -7.9240   -1.0210 hc        1 MOL      0.102520
     28 H12         4.0170   -7.2220   -0.3250 hc        1 MOL      0.102520
     29 N3          4.0900   -3.7090   -1.5280 n         1 MOL     -0.289788
     30 C10         3.1340   -2.6570   -1.7550 c3        1 MOL      0.021621
     31 C11         3.7570   -1.5200   -2.5980 c         1 MOL      0.474130
     32 O6          4.9560   -1.2850   -2.6480 o         1 MOL     -0.575377
     33 C12         2.5430   -2.0660   -0.4660 c3        1 MOL      0.003408
     34 C13         3.5800   -1.9830    0.6470 c         1 MOL      0.513542
     35 O7          4.4910   -1.1650    0.4360 o         1 MOL     -0.581883
     36 O8          3.2540   -2.4550    1.7440 o         1 MOL     -0.581883
     37 H13         5.0140   -3.4530   -1.2240 hn        1 MOL      0.129623
     38 H14         2.3700   -2.9840   -2.4530 h1        1 MOL      0.033141
     39 H15         1.7670   -2.7780   -0.1820 hc        1 MOL      0.074401
     40 H16         2.0090   -1.1200   -0.5850 hc        1 MOL      0.074401
     41 N4          2.8960   -0.6840   -3.1410 n         1 MOL     -0.338763
     42 C14         3.2830    0.5120   -3.8760 c3        1 MOL     -0.199090
     43 C15         3.8140    1.5900   -2.9030 c         1 MOL      0.389613
     44 O9          4.3860    1.3240   -1.8750 o         1 MOL     -0.480520
     45 H17         1.9150   -0.8990   -3.0910 hn        1 MOL      0.321601
     46 H18         2.3600    0.8000   -4.3720 h1        1 MOL      0.123454
     47 H19         4.0440    0.3710   -4.6540 h1        1 MOL      0.123454
     48 N5          3.7320    2.8870   -3.3020 n         1 MOL     -0.282407
     49 C16         4.1580    4.0070   -2.5250 c3        1 MOL     -0.069678
     50 C17         3.1850    4.3070   -1.4320 c         1 MOL      0.373963
     51 O10         1.9680    4.2560   -1.7260 o         1 MOL     -0.358457
     52 C18         4.1940    5.2090   -3.4810 c3        1 MOL     -0.270770
     53 C19         2.8390    5.6890   -4.0230 c         1 MOL      0.570807
     54 N6          2.4360    5.1620   -5.1970 n         1 MOL     -0.771562
     55 O11         2.0800    6.4070   -3.3490 o         1 MOL     -0.426681
     56 H20         3.2560    3.0330   -4.1770 hn        1 MOL      0.221018
     57 H21         5.1480    3.8340   -2.1030 h1        1 MOL      0.105303
     58 H22         4.7580    4.8110   -4.3340 hc        1 MOL      0.073200
     59 H23         4.7120    5.9920   -2.9280 hc        1 MOL      0.073200
     60 H24         2.9920    4.6000   -5.8210 hn        1 MOL      0.360934
     61 H25         1.5130    5.3560   -5.5420 hn        1 MOL      0.360934
     62 N7          3.6300    4.6970   -0.2170 n         1 MOL     -0.222159
     63 C20         2.8750    5.0670    0.9540 c3        1 MOL     -0.160915
     64 C21         2.2140    6.4660    0.7620 c         1 MOL      0.691566
     65 O12         2.5870    7.3300    0.0090 o         1 MOL     -0.570034
     66 H26         4.6270    4.8770   -0.2110 hn        1 MOL      0.256172
     67 H27         3.5780    5.2040    1.7730 h1        1 MOL      0.069125
     68 H28         2.1250    4.3220    1.2010 h1        1 MOL      0.069125
     69 N8          1.2560    6.7400    1.6630 n         1 MOL     -0.582161
     70 C22         0.5570    5.8450    2.5060 c3        1 MOL      0.006008
     71 C23        -0.3730    4.8250    1.8100 c         1 MOL      0.681953
     72 O13        -0.9810    5.0980    0.7990 o         1 MOL     -0.517995
     73 C24        -0.3060    6.6580    3.5120 c3        1 MOL      0.313745
     74 C25         0.5840    7.3850    4.4800 c3        1 MOL     -0.305797
     75 O14        -1.0970    7.5600    2.7660 oh        1 MOL     -0.634077
     76 H29         0.7800    7.6170    1.4840 hn        1 MOL      0.349422
     77 H30         1.3350    5.3000    3.0490 h1        1 MOL      0.062000
     78 H31        -0.9500    5.9220    3.9990 h1        1 MOL      0.021168
     79 H32        -1.7070    8.0500    3.3210 ho        1 MOL      0.423990
     80 H33         1.2390    6.5900    4.8360 hc        1 MOL      0.067281
     81 H34         1.1200    8.1910    4.0060 hc        1 MOL      0.067281
     82 H35         0.0420    7.8530    5.3080 hc        1 MOL      0.067281
     83 N9         -0.3020    3.6040    2.3110 n         1 MOL     -0.520669
     84 C26        -1.1360    2.3950    1.9960 c3        1 MOL      0.183376
     85 C27        -2.3430    2.3340    2.9680 c         1 MOL      0.656000
     86 O15        -2.1100    2.6480    4.1500 o         1 MOL     -0.607028
     87 C28        -0.2510    1.1390    2.0260 c3        1 MOL     -0.095085
     88 C29         1.1010    1.2560    1.2680 c3        1 MOL     -0.076660
     89 C30        -1.0730    0.0100    1.4600 c3        1 MOL      0.040002
     90 C31         1.0650    1.6250   -0.2350 c3        1 MOL      0.021076
     91 H36         0.1860    3.5460    3.1910 hn        1 MOL      0.217931
     92 H37        -1.4670    2.5480    0.9610 h1        1 MOL      0.077020
     93 H38        -0.1280    0.9900    3.0960 hc        1 MOL      0.031163
     94 H39         1.5720    0.2660    1.3090 hc        1 MOL      0.027773
     95 H40         1.8350    1.9020    1.7610 hc        1 MOL      0.027773
     96 H41        -0.5200   -0.9240    1.3900 hc        1 MOL     -0.005522
     97 H42        -1.8950   -0.1880    2.1440 hc        1 MOL     -0.005522
     98 H43        -1.5050    0.2270    0.4850 hc        1 MOL     -0.005522
     99 H44         0.5530    2.5830   -0.2260 hc        1 MOL     -0.005153
    100 H45         2.1200    1.6020   -0.4980 hc        1 MOL     -0.005153
    101 H46         0.4910    0.8880   -0.7810 hc        1 MOL     -0.005153
    102 N10        -3.5590    1.9810    2.5370 n         1 MOL     -0.663417
    103 C32        -4.0700    1.9690    1.1780 c3        1 MOL      0.259764
    104 C33        -5.2990    1.1700    0.9270 c         1 MOL      0.621863
    105 O16        -6.0700    0.9650    1.8550 o         1 MOL     -0.533037
    106 C34        -4.2490    3.4420    0.7520 c3        1 MOL      0.086292
    107 C35        -5.5280    4.1530    1.2120 c         1 MOL      0.629148
    108 O17        -5.5630    4.5060    2.4200 o         1 MOL     -0.677694
    109 O18        -6.5330    4.2220    0.4430 o         1 MOL     -0.677694
    110 H47        -4.2580    1.9420    3.2660 hn        1 MOL      0.346914
    111 H48        -3.3660    1.4830    0.5040 h1        1 MOL     -0.044757
    112 H49        -4.3160    3.4040   -0.3390 hc        1 MOL     -0.082522
    113 H50        -3.3840    4.0420    1.0430 hc        1 MOL     -0.082522
    114 N11        -5.6480    0.7450   -0.2810 n         1 MOL     -0.768597
    115 C36        -6.8730    0.0580   -0.6190 c3        1 MOL      0.470559
    116 C37        -6.6430   -0.9190   -1.7500 c         1 MOL      0.033426
    117 O19        -6.1910   -0.4960   -2.8300 o         1 MOL     -0.454530
    118 C38        -8.0180    1.0060   -1.0920 c3        1 MOL     -0.119298
    119 C39        -9.3720    0.3790   -1.3540 ca        1 MOL      0.009650
    120 C40        -9.8790    0.6390   -2.6410 ca        1 MOL     -0.064086
    121 C41       -10.1170   -0.2150   -0.3130 ca        1 MOL     -0.064086
    122 C42       -11.2210    0.2230   -2.9100 ca        1 MOL     -0.167874
    123 C43       -11.4310   -0.5670   -0.5600 ca        1 MOL     -0.167874
    124 C44       -11.9710   -0.2700   -1.8230 ca        1 MOL     -0.114055
    125 H51        -5.0050    0.9110   -1.0450 hn        1 MOL      0.409918
    126 H52        -7.2440   -0.5260    0.2350 h1        1 MOL     -0.015855
    127 H53        -7.6210    1.4960   -1.9840 hc        1 MOL      0.062259
    128 H54        -8.0770    1.8240   -0.3640 hc        1 MOL      0.062259
    129 H55        -9.4350    1.3070   -3.3560 ha        1 MOL      0.112507
    130 H56        -9.6790   -0.2260    0.6670 ha        1 MOL      0.112507
    131 H57       -11.7410    0.4530   -3.8340 ha        1 MOL      0.106583
    132 H58       -12.0150   -0.9550    0.2580 ha        1 MOL      0.106583
    133 H59       -13.0090   -0.5010   -1.9950 ha        1 MOL      0.079473
    134 N12        -6.8250   -2.2490   -1.7170 n         1 MOL      0.120338
    135 C45        -7.3350   -2.8870   -0.4820 c3        1 MOL      0.021453
    136 C46        -6.2170   -3.0020    0.4780 c         1 MOL      0.608412
    137 O20        -6.4440   -2.7020    1.6510 o         1 MOL     -0.613538
    138 C47        -7.9250   -4.2900   -0.8950 c3        1 MOL     -0.107062
    139 C48        -7.1380   -4.6060   -2.1720 c3        1 MOL     -0.003669
    140 C49        -6.7390   -3.2190   -2.8160 c3        1 MOL     -0.182006
    141 H60        -8.1870   -2.3610   -0.0570 h1        1 MOL      0.028368
    142 H61        -7.7140   -5.0830   -0.1730 hc        1 MOL      0.035962
    143 H62        -8.9840   -4.2440   -1.1340 hc        1 MOL      0.035962
    144 H63        -6.2450   -5.1950   -1.9750 hc        1 MOL      0.030072
    145 H64        -7.6660   -5.1790   -2.9350 hc        1 MOL      0.030072
    146 H65        -5.7180   -3.2890   -3.1860 h1        1 MOL      0.078238
    147 H66        -7.4210   -2.7900   -3.5550 h1        1 MOL      0.078238
    148 N13        -5.0210   -3.4970    0.1080 n         1 MOL     -0.335951
    149 C50        -4.0570   -3.9540    1.0590 c3        1 MOL      0.229106
    150 C51        -4.5040   -5.2400    1.7940 c         1 MOL      0.311893
    151 O21        -4.6180   -6.2490    1.1460 o         1 MOL     -0.536288
    152 C52        -2.6920   -4.2240    0.3450 c3        1 MOL     -0.050012
    153 C53        -2.0970   -3.0000   -0.3200 c3        1 MOL      0.004775
    154 C54        -2.8280   -2.7710   -1.6250 c         1 MOL      0.666581
    155 O22        -3.1200   -3.7410   -2.4090 o         1 MOL     -0.676603
    156 O23        -3.0290   -1.6220   -2.0340 o         1 MOL     -0.676603
    157 H67        -4.9060   -3.7920   -0.8530 hn        1 MOL      0.217098
    158 H68        -3.9200   -3.1770    1.8070 h1        1 MOL      0.047564
    159 H69        -2.8130   -5.0170   -0.3910 hc        1 MOL      0.008177
    160 H70        -2.0270   -4.5110    1.1600 hc        1 MOL      0.008177
    161 H71        -1.0390   -3.1180   -0.5470 hc        1 MOL     -0.047791
    162 H72        -2.2600   -2.1130    0.2870 hc        1 MOL     -0.047791
    163 N14        -4.9930   -5.2310    3.0340 n         1 MOL     -0.282410
    164 C55        -5.3500   -4.1460    3.9420 c3        1 MOL     -0.163551
    165 H73        -4.4630   -3.5520    4.1640 h1        1 MOL      0.080517
    166 H74        -6.1030   -3.5120    3.4740 h1        1 MOL      0.080517
    167 H75        -5.7490   -4.5630    4.8680 h1        1 MOL      0.080517
    168 H76        -5.2280   -6.1530    3.3750 hn        1 MOL      0.245968
    169 Ca1         6.5020   -0.0880   -0.8350 Ca        1 MOL      1.767438
    170 O24         7.8330   -0.2800   -3.0030 oh        1 MOL     -0.830093
    171 H77         8.1930    0.1870   -3.7580 ho        1 MOL      0.392515
    172 H78         7.5510   -1.1250   -3.3520 ho        1 MOL      0.392515
    173 O25         5.3570    1.6870    0.9130 oh        1 MOL     -0.830093
    174 H79         4.8060    1.2400    1.5610 ho        1 MOL      0.392515
    175 H80         5.5380    2.5340    1.3180 ho        1 MOL      0.392515
    176 O26         7.3180    2.5360   -1.6920 oh        1 MOL     -0.830093
    177 H81         7.4360    2.6030   -2.6460 ho        1 MOL      0.392515
    178 H82         7.8120    3.2730   -1.3380 ho        1 MOL      0.392515
    179 O27         8.9990    0.6400    0.2190 oh        1 MOL     -0.830093
    180 H83         9.6030    1.3470    0.0070 ho        1 MOL      0.392515
    181 H84         9.5490   -0.0070    0.6720 ho        1 MOL      0.392515
@<TRIPOS>BOND
     1    1    2 1   
     2    1    4 1   
     3    1    5 1   
     4    1    6 1   
     5    2    3 2   
     6    2    7 1   
     7    7    8 1   
     8    7   15 1   
     9    8    9 1   
    10    8   11 1   
    11    8   16 1   
    12    9   10 2   
    13    9   19 1   
    14   11   12 1   
    15   11   17 1   
    16   11   18 1   
    17   12   13 1   
    18   12   14 1   
    19   19   20 1   
    20   19   24 1   
    21   20   21 1   
    22   20   23 1   
    23   20   25 1   
    24   21   22 2   
    25   21   29 1   
    26   23   26 1   
    27   23   27 1   
    28   23   28 1   
    29   29   30 1   
    30   29   37 1   
    31   30   31 1   
    32   30   33 1   
    33   30   38 1   
    34   31   32 2   
    35   31   41 1   
    36   33   34 1   
    37   33   39 1   
    38   33   40 1   
    39   34   35 1   
    40   34   36 1   
    41   41   42 1   
    42   41   45 1   
    43   42   43 1   
    44   42   46 1   
    45   42   47 1   
    46   43   44 2   
    47   43   48 1   
    48   48   49 1   
    49   48   56 1   
    50   49   50 1   
    51   49   52 1   
    52   49   57 1   
    53   50   51 2   
    54   50   62 1   
    55   52   53 1   
    56   52   58 1   
    57   52   59 1   
    58   53   54 1   
    59   53   55 2   
    60   54   60 1   
    61   54   61 1   
    62   62   63 1   
    63   62   66 1   
    64   63   64 1   
    65   63   67 1   
    66   63   68 1   
    67   64   65 2   
    68   64   69 1   
    69   69   70 1   
    70   69   76 1   
    71   70   71 1   
    72   70   73 1   
    73   70   77 1   
    74   71   72 2   
    75   71   83 1   
    76   73   74 1   
    77   73   75 1   
    78   73   78 1   
    79   74   80 1   
    80   74   81 1   
    81   74   82 1   
    82   75   79 1   
    83   83   84 1   
    84   83   91 1   
    85   84   85 1   
    86   84   87 1   
    87   84   92 1   
    88   85   86 2   
    89   85  102 1   
    90   87   88 1   
    91   87   89 1   
    92   87   93 1   
    93   88   90 1   
    94   88   94 1   
    95   88   95 1   
    96   89   96 1   
    97   89   97 1   
    98   89   98 1   
    99   90   99 1   
   100   90  100 1   
   101   90  101 1   
   102  102  103 1   
   103  102  110 1   
   104  103  104 1   
   105  103  106 1   
   106  103  111 1   
   107  104  105 2   
   108  104  114 1   
   109  106  107 1   
   110  106  112 1   
   111  106  113 1   
   112  107  108 1   
   113  107  109 1   
   114  114  115 1   
   115  114  125 1   
   116  115  116 1   
   117  115  118 1   
   118  115  126 1   
   119  116  117 2   
   120  116  134 1   
   121  118  119 1   
   122  118  127 1   
   123  118  128 1   
   124  119  120 ar  
   125  119  121 ar  
   126  120  122 ar  
   127  120  129 1   
   128  121  123 ar  
   129  121  130 1   
   130  122  124 ar  
   131  122  131 1   
   132  123  124 ar  
   133  123  132 1   
   134  124  133 1   
   135  134  135 1   
   136  134  140 1   
   137  135  136 1   
   138  135  138 1   
   139  135  141 1   
   140  136  137 2   
   141  136  148 1   
   142  138  139 1   
   143  138  142 1   
   144  138  143 1   
   145  139  140 1   
   146  139  144 1   
   147  139  145 1   
   148  140  146 1   
   149  140  147 1   
   150  148  149 1   
   151  148  157 1   
   152  149  150 1   
   153  149  152 1   
   154  149  158 1   
   155  150  151 2   
   156  150  163 1   
   157  152  153 1   
   158  152  159 1   
   159  152  160 1   
   160  153  154 1   
   161  153  161 1   
   162  153  162 1   
   163  154  155 1   
   164  154  156 1   
   165  163  164 1   
   166  163  168 1   
   167  164  165 1   
   168  164  166 1   
   169  164  167 1   
   170  170  171 1   
   171  170  172 1   
   172  173  174 1   
   173  173  175 1   
   174  176  177 1   
   175  176  178 1   
   176  179  180 1   
   177  179  181 1   
@<TRIPOS>SUBSTRUCTURE
     1 MOL         1 TEMP              0 ****  ****    0 ROOT
