@<TRIPOS>MOLECULE
MOL
  192   187     1     0     0
SMALL
resp


@<TRIPOS>ATOM
      1 C1         -9.9750    0.1270   -2.6510 c3        1 MOL     -0.587522
      2 C2         -8.8980    0.4710   -1.6930 c         1 MOL      0.812917
      3 O1         -8.1400    1.3300   -2.1070 o         1 MOL     -0.618525
      4 H1        -10.0660   -0.9570   -2.7210 hc        1 MOL      0.146207
      5 H2        -10.9190    0.5480   -2.3040 hc        1 MOL      0.146207
      6 H3         -9.7330    0.5350   -3.6330 hc        1 MOL      0.146207
      7 N1         -8.6970   -0.1800   -0.5670 n         1 MOL     -0.644434
      8 C3         -7.5820    0.0250    0.3900 c3        1 MOL      0.328914
      9 C4         -7.0050   -1.2830    0.8770 c         1 MOL      0.408971
     10 O2         -6.6560   -1.5660    2.0510 o         1 MOL     -0.434306
     11 C5         -8.0950    0.9080    1.5150 c3        1 MOL     -0.414278
     12 C6         -9.5520    0.4150    1.9530 c         1 MOL      0.749093
     13 O3        -10.5600    1.1810    1.9970 o         1 MOL     -0.636326
     14 O4         -9.7350   -0.7890    2.1950 o         1 MOL     -0.636326
     15 H4         -9.4570   -0.7990   -0.3240 hn        1 MOL      0.300692
     16 H5         -6.7570    0.5420   -0.1140 h1        1 MOL     -0.035239
     17 H6         -8.0960    1.9070    1.0800 hc        1 MOL      0.112970
     18 H7         -7.4010    0.9460    2.3480 hc        1 MOL      0.112970
     19 N2         -6.8670   -2.1830   -0.1270 n         1 MOL     -0.330641
     20 C7         -6.2920   -3.5010    0.0600 c3        1 MOL      0.034884
     21 C8         -4.9410   -3.6280    0.7740 c         1 MOL      0.542348
     22 O5         -4.6330   -4.6370    1.3720 o         1 MOL     -0.543033
     23 C9         -6.3200   -4.2460   -1.2720 c3        1 MOL     -0.206158
     24 C10        -7.7860   -4.4820   -1.6920 c3        1 MOL      0.200457
     25 C11        -8.0630   -4.9890   -3.0900 c3        1 MOL     -0.057514
     26 C12        -9.5820   -4.9750   -3.2780 c3        1 MOL      0.147802
     27 N3        -10.0940   -5.5160   -4.5920 n4        1 MOL     -0.376808
     28 H8         -7.0130   -1.9160   -1.0880 hn        1 MOL      0.217030
     29 H9         -6.9450   -4.0270    0.7530 h1        1 MOL      0.089076
     30 H10        -5.8610   -5.2280   -1.0990 hc        1 MOL      0.077809
     31 H11        -5.7430   -3.7130   -2.0300 hc        1 MOL      0.077809
     32 H12        -8.3000   -3.5240   -1.5990 hc        1 MOL     -0.032507
     33 H13        -8.2660   -5.0860   -0.9120 hc        1 MOL     -0.032507
     34 H14        -7.5750   -5.9620   -3.1370 hc        1 MOL      0.017066
     35 H15        -7.5200   -4.3310   -3.7730 hc        1 MOL      0.017066
     36 H16        -9.8930   -3.9300   -3.1950 hx        1 MOL      0.032001
     37 H17        -9.9780   -5.6100   -2.4830 hx        1 MOL      0.032001
     38 H18       -10.0730   -4.8050   -5.3110 hn        1 MOL      0.290014
     39 H19        -9.6350   -6.3940   -4.8110 hn        1 MOL      0.290014
     40 H20       -11.0560   -5.7840   -4.4810 hn        1 MOL      0.290014
     41 N4         -4.0680   -2.5850    0.7550 n         1 MOL     -0.457692
     42 C13        -3.9300   -1.3620   -0.1080 c3        1 MOL      0.057105
     43 C14        -3.7580   -0.0610    0.7730 c         1 MOL      0.214247
     44 O6         -3.5240   -0.1750    1.9550 o         1 MOL     -0.386682
     45 C15        -2.6540   -1.5800   -0.9170 c3        1 MOL     -0.056320
     46 C16        -1.4020   -1.9540   -0.2010 c         1 MOL      0.560820
     47 O7         -0.8880   -1.1540    0.6410 o         1 MOL     -0.611975
     48 O8         -0.7800   -2.8920   -0.7320 o         1 MOL     -0.611975
     49 H21        -3.3940   -2.7560    1.4800 hn        1 MOL      0.349012
     50 H22        -4.7490   -1.2460   -0.8220 h1        1 MOL      0.055467
     51 H23        -2.3530   -0.7310   -1.5190 hc        1 MOL      0.012659
     52 H24        -2.8250   -2.4330   -1.5710 hc        1 MOL      0.012659
     53 N5         -3.9530    1.1270    0.2060 n         1 MOL     -0.109492
     54 C17        -3.7670    2.4810    0.8310 c3        1 MOL     -0.005262
     55 C18        -2.3160    2.9710    1.1670 c         1 MOL      0.603782
     56 O9         -1.3430    2.2460    1.0280 o         1 MOL     -0.685152
     57 H25        -4.1470    1.0860   -0.7850 hn        1 MOL      0.198717
     58 H26        -4.4250    2.5840    1.6860 h1        1 MOL      0.048338
     59 H27        -4.1980    3.1870    0.1200 h1        1 MOL      0.048338
     60 N6         -2.2390    4.1600    1.7430 n         1 MOL     -0.474089
     61 C19        -0.9710    4.8220    2.1790 c3        1 MOL      0.311813
     62 C20        -1.1540    6.3920    2.1070 c         1 MOL      0.474961
     63 O10        -2.3090    6.8800    2.1920 o         1 MOL     -0.524802
     64 C21        -0.5660    4.4500    3.6570 c3        1 MOL     -0.318427
     65 C22        -0.5050    2.9320    3.8520 c         1 MOL      0.689606
     66 O11         0.4270    2.2480    3.3940 o         1 MOL     -0.635583
     67 O12        -1.3290    2.3340    4.5680 o         1 MOL     -0.635583
     68 H28        -3.0860    4.7040    1.8040 hn        1 MOL      0.270367
     69 H29        -0.1770    4.5730    1.4770 h1        1 MOL      0.041057
     70 H30        -1.2650    4.8890    4.3660 hc        1 MOL      0.083503
     71 H31         0.4420    4.8200    3.8440 hc        1 MOL      0.083503
     72 N7         -0.1080    7.2210    2.1910 n         1 MOL     -0.487307
     73 C23         1.2890    6.8170    2.0260 c3        1 MOL     -0.028540
     74 C24         1.7440    6.3010    0.6850 c         1 MOL      0.577412
     75 O13         1.1610    6.4990   -0.3860 o         1 MOL     -0.509531
     76 H32        -0.2330    8.2240    2.1860 hn        1 MOL      0.345256
     77 H33         1.5800    6.0620    2.7590 h1        1 MOL      0.064651
     78 H34         1.9420    7.6620    2.2630 h1        1 MOL      0.064651
     79 N8          2.7140    5.3950    0.7730 n         1 MOL     -0.623834
     80 C25         3.1070    4.5590   -0.3500 c3        1 MOL      0.169397
     81 C26         1.9330    3.6990   -0.6900 c         1 MOL      0.480955
     82 O14         1.4170    3.0200    0.1850 o         1 MOL     -0.646883
     83 C27         4.4310    3.7740   -0.0460 c3        1 MOL      0.335994
     84 C28         5.7130    4.5930   -0.2570 c3        1 MOL     -0.546545
     85 O15         4.4200    2.6370   -0.8140 oh        1 MOL     -0.582542
     86 H35         2.9150    5.0710    1.7130 hn        1 MOL      0.305369
     87 H36         3.1550    5.2380   -1.2120 h1        1 MOL      0.038536
     88 H37         4.3220    3.3950    0.9710 h1        1 MOL      0.069932
     89 H38         5.2620    2.5310   -1.2600 ho        1 MOL      0.373933
     90 H39         5.6540    5.2550    0.6020 hc        1 MOL      0.152459
     91 H40         6.5390    3.9420    0.0330 hc        1 MOL      0.152459
     92 H41         5.7340    4.9680   -1.2750 hc        1 MOL      0.152459
     93 N9          1.5850    3.6610   -1.9440 n         1 MOL     -0.356878
     94 C29         0.5540    2.8470   -2.5950 c3        1 MOL      0.040928
     95 C30         0.8150    1.3670   -2.1370 c         1 MOL      0.694421
     96 O16         0.0980    0.8290   -1.3460 o         1 MOL     -0.541068
     97 C31        -0.8180    3.3740   -2.2670 c3        1 MOL     -0.004650
     98 C32        -1.0280    4.8130   -2.7860 c3        1 MOL      0.195569
     99 C33        -1.8420    2.4720   -2.9310 c3        1 MOL     -0.660992
    100 C34        -2.1420    5.5210   -2.0830 c3        1 MOL     -0.282079
    101 H42         2.3260    4.0270   -2.5260 hn        1 MOL      0.225683
    102 H43         0.7390    3.0850   -3.6450 h1        1 MOL      0.047148
    103 H44        -1.0040    3.3910   -1.1850 hc        1 MOL      0.154491
    104 H45        -1.0570    4.8640   -3.8690 hc        1 MOL     -0.023822
    105 H46        -0.1250    5.4150   -2.6040 hc        1 MOL     -0.023822
    106 H47        -1.5540    2.2550   -3.9630 hc        1 MOL      0.174404
    107 H48        -1.8020    1.5100   -2.4220 hc        1 MOL      0.174404
    108 H49        -2.8600    2.8580   -2.8510 hc        1 MOL      0.174404
    109 H50        -2.2790    6.5060   -2.5260 hc        1 MOL      0.061426
    110 H51        -3.0240    4.9010   -2.2640 hc        1 MOL      0.061426
    111 H52        -1.8810    5.5360   -1.0210 hc        1 MOL      0.061426
    112 N10         1.8500    0.7150   -2.7210 n         1 MOL     -0.622357
    113 C35         2.1130   -0.7320   -2.7900 c3        1 MOL      0.017661
    114 C36         3.5440   -1.1470   -3.0690 c         1 MOL      0.380067
    115 O17         3.7880   -2.3300   -3.1660 o         1 MOL     -0.499748
    116 C37         1.1440   -1.4530   -3.7490 c3        1 MOL      0.471237
    117 C38         0.9900   -0.7380   -5.0380 c3        1 MOL     -0.302614
    118 O18        -0.1490   -1.4700   -3.1920 oh        1 MOL     -0.532236
    119 H53         2.2640    1.3360   -3.3940 hn        1 MOL      0.263427
    120 H54         1.8860   -1.1580   -1.8150 h1        1 MOL      0.107373
    121 H55         1.4450   -2.4650   -3.9950 h1        1 MOL     -0.019158
    122 H56        -0.0340   -1.9170   -2.3530 ho        1 MOL      0.270655
    123 H57         0.3950    0.1490   -4.8050 hc        1 MOL      0.062454
    124 H58         1.9480   -0.4710   -5.4790 hc        1 MOL      0.062454
    125 H59         0.4010   -1.3080   -5.7580 hc        1 MOL      0.062454
    126 N11         4.4930   -0.1730   -3.1720 n         1 MOL     -0.249887
    127 C39         5.9520   -0.3870   -3.0870 c3        1 MOL      0.006233
    128 C40         6.3890   -0.7890   -1.6420 c         1 MOL      0.477436
    129 O19         6.8210    0.0570   -0.8320 o         1 MOL     -0.479259
    130 C41         6.7330    0.9030   -3.4590 c3        1 MOL      0.135969
    131 C42         6.7190    1.1920   -4.9200 c3        1 MOL     -0.120327
    132 O20         6.2060    2.0490   -2.7830 oh        1 MOL     -0.632105
    133 H60         4.1290    0.7650   -3.1960 hn        1 MOL      0.269427
    134 H61         6.2840   -1.2090   -3.7270 h1        1 MOL      0.052927
    135 H62         7.7810    0.7380   -3.2230 h1        1 MOL      0.068174
    136 H63         6.7250    2.7500   -3.1910 ho        1 MOL      0.425543
    137 H64         7.3150    0.4480   -5.4350 hc        1 MOL      0.037914
    138 H65         5.7220    1.1370   -5.3610 hc        1 MOL      0.037914
    139 H66         7.1820    2.1330   -5.2100 hc        1 MOL      0.037914
    140 N12         6.1800   -2.1000   -1.2920 n         1 MOL     -0.328895
    141 C43         6.3440   -2.6630    0.0720 c3        1 MOL     -0.053289
    142 C44         5.2470   -2.2410    0.9640 c         1 MOL      0.542772
    143 O21         4.7880   -1.1260    0.9080 o         1 MOL     -0.398749
    144 C45         7.8490   -2.4560    0.5000 c3        1 MOL     -0.252936
    145 C46         8.8850   -2.9410   -0.5120 c3        1 MOL     -0.075485
    146 C47        10.3460   -2.8260   -0.0820 c3        1 MOL      0.191024
    147 C48        11.2280   -3.3600   -1.1710 c3        1 MOL     -0.014717
    148 N13        12.5590   -3.7860   -0.6360 n4        1 MOL     -0.152040
    149 H67         6.1080   -2.7950   -2.0200 hn        1 MOL      0.258011
    150 H68         6.2120   -3.7390   -0.0880 h1        1 MOL      0.088499
    151 H69         8.0680   -2.9280    1.4640 hc        1 MOL      0.103372
    152 H70         8.0030   -1.4290    0.8530 hc        1 MOL      0.103372
    153 H71         8.7850   -2.3110   -1.3920 hc        1 MOL      0.032512
    154 H72         8.5980   -3.9710   -0.7230 hc        1 MOL      0.032512
    155 H73        10.4380   -3.4100    0.8370 hc        1 MOL     -0.011568
    156 H74        10.6800   -1.7990    0.1020 hc        1 MOL     -0.011568
    157 H75        11.2780   -2.6450   -1.9930 hx        1 MOL      0.066165
    158 H76        10.7010   -4.2690   -1.4370 hx        1 MOL      0.066165
    159 H77        12.4770   -4.4450    0.1260 hn        1 MOL      0.191737
    160 H78        13.0950   -4.3190   -1.3050 hn        1 MOL      0.191737
    161 H79        13.0860   -3.0380   -0.2080 hn        1 MOL      0.191737
    162 N14         4.7250   -3.2190    1.7580 n         1 MOL     -0.513737
    163 C49         3.4970   -3.0770    2.5360 c3        1 MOL      0.119990
    164 C50         2.2220   -2.6780    1.7550 c         1 MOL      0.609964
    165 O22         1.7050   -1.5510    1.9120 o         1 MOL     -0.744512
    166 C51         3.2660   -4.4000    3.2960 c3        1 MOL     -0.004111
    167 C52         4.0030   -4.6010    4.6130 c3        1 MOL     -0.169015
    168 C53         3.5710   -5.8720    5.2160 c         1 MOL      0.705981
    169 O23         4.3930   -6.8180    5.0710 o         1 MOL     -0.644309
    170 O24         2.5080   -5.9360    5.8610 o         1 MOL     -0.644309
    171 H80         5.1050   -4.1570    1.6440 hn        1 MOL      0.299717
    172 H81         3.7670   -2.2320    3.1750 h1        1 MOL      0.070661
    173 H82         3.5780   -5.2040    2.6210 hc        1 MOL      0.039739
    174 H83         2.2130   -4.5070    3.5490 hc        1 MOL      0.039739
    175 H84         3.7100   -3.8080    5.2940 hc        1 MOL      0.010086
    176 H85         5.0610   -4.6900    4.3550 hc        1 MOL      0.010086
    177 N15         1.6610   -3.4200    0.8230 n         1 MOL     -0.423445
    178 C54         2.0070   -4.7700    0.3010 c3        1 MOL      0.022851
    179 H86         2.6200   -4.6660   -0.5950 h1        1 MOL      0.031029
    180 H87         2.5640   -5.3200    1.0590 h1        1 MOL      0.031029
    181 H88         1.0930   -5.3100    0.0560 h1        1 MOL      0.031029
    182 H89         0.9210   -2.8710    0.4120 hn        1 MOL      0.377189
    183 Ca1         0.6680    0.7200    1.2990 Ca        1 MOL      1.731585
    184 O25        -1.0680   -0.1490    3.2940 oh        1 MOL     -0.831718
    185 H90        -1.8520   -0.3310    2.7760 ho        1 MOL      0.381662
    186 H91        -1.3120    0.5860    3.8460 ho        1 MOL      0.381662
    187 O26         2.8430    1.0930    3.0410 oh        1 MOL     -0.831718
    188 H92         2.2130    1.5070    3.6370 ho        1 MOL      0.381662
    189 H93         3.0270    0.2420    3.4400 ho        1 MOL      0.381662
    190 O27         2.9920    0.6030    0.0220 oh        1 MOL     -0.831718
    191 H94         3.6630    0.1730    0.5550 ho        1 MOL      0.381662
    192 H95         3.4750    1.2580   -0.4830 ho        1 MOL      0.381662
@<TRIPOS>BOND
     1    1    2 1   
     2    1    4 1   
     3    1    5 1   
     4    1    6 1   
     5    2    3 2   
     6    2    7 1   
     7    7    8 1   
     8    7   15 1   
     9    8    9 1   
    10    8   11 1   
    11    8   16 1   
    12    9   10 2   
    13    9   19 1   
    14   11   12 1   
    15   11   17 1   
    16   11   18 1   
    17   12   13 1   
    18   12   14 1   
    19   19   20 1   
    20   19   28 1   
    21   20   21 1   
    22   20   23 1   
    23   20   29 1   
    24   21   22 2   
    25   21   41 1   
    26   23   24 1   
    27   23   30 1   
    28   23   31 1   
    29   24   25 1   
    30   24   32 1   
    31   24   33 1   
    32   25   26 1   
    33   25   34 1   
    34   25   35 1   
    35   26   27 1   
    36   26   36 1   
    37   26   37 1   
    38   27   38 1   
    39   27   39 1   
    40   27   40 1   
    41   41   42 1   
    42   41   49 1   
    43   42   43 1   
    44   42   45 1   
    45   42   50 1   
    46   43   44 2   
    47   43   53 1   
    48   45   46 1   
    49   45   51 1   
    50   45   52 1   
    51   46   47 1   
    52   46   48 1   
    53   53   54 1   
    54   53   57 1   
    55   54   55 1   
    56   54   58 1   
    57   54   59 1   
    58   55   56 2   
    59   55   60 1   
    60   60   61 1   
    61   60   68 1   
    62   61   62 1   
    63   61   64 1   
    64   61   69 1   
    65   62   63 2   
    66   62   72 1   
    67   64   65 1   
    68   64   70 1   
    69   64   71 1   
    70   65   66 1   
    71   65   67 1   
    72   72   73 1   
    73   72   76 1   
    74   73   74 1   
    75   73   77 1   
    76   73   78 1   
    77   74   75 2   
    78   74   79 1   
    79   79   80 1   
    80   79   86 1   
    81   80   81 1   
    82   80   83 1   
    83   80   87 1   
    84   81   82 2   
    85   81   93 1   
    86   83   84 1   
    87   83   85 1   
    88   83   88 1   
    89   84   90 1   
    90   84   91 1   
    91   84   92 1   
    92   85   89 1   
    93   93   94 1   
    94   93  101 1   
    95   94   95 1   
    96   94   97 1   
    97   94  102 1   
    98   95   96 2   
    99   95  112 1   
   100   97   98 1   
   101   97   99 1   
   102   97  103 1   
   103   98  100 1   
   104   98  104 1   
   105   98  105 1   
   106   99  106 1   
   107   99  107 1   
   108   99  108 1   
   109  100  109 1   
   110  100  110 1   
   111  100  111 1   
   112  112  113 1   
   113  112  119 1   
   114  113  114 1   
   115  113  116 1   
   116  113  120 1   
   117  114  115 2   
   118  114  126 1   
   119  116  117 1   
   120  116  118 1   
   121  116  121 1   
   122  117  123 1   
   123  117  124 1   
   124  117  125 1   
   125  118  122 1   
   126  126  127 1   
   127  126  133 1   
   128  127  128 1   
   129  127  130 1   
   130  127  134 1   
   131  128  129 2   
   132  128  140 1   
   133  130  131 1   
   134  130  132 1   
   135  130  135 1   
   136  131  137 1   
   137  131  138 1   
   138  131  139 1   
   139  132  136 1   
   140  140  141 1   
   141  140  149 1   
   142  141  142 1   
   143  141  144 1   
   144  141  150 1   
   145  142  143 2   
   146  142  162 1   
   147  144  145 1   
   148  144  151 1   
   149  144  152 1   
   150  145  146 1   
   151  145  153 1   
   152  145  154 1   
   153  146  147 1   
   154  146  155 1   
   155  146  156 1   
   156  147  148 1   
   157  147  157 1   
   158  147  158 1   
   159  148  159 1   
   160  148  160 1   
   161  148  161 1   
   162  162  163 1   
   163  162  171 1   
   164  163  164 1   
   165  163  166 1   
   166  163  172 1   
   167  164  165 2   
   168  164  177 1   
   169  166  167 1   
   170  166  173 1   
   171  166  174 1   
   172  167  168 1   
   173  167  175 1   
   174  167  176 1   
   175  168  169 1   
   176  168  170 1   
   177  177  178 1   
   178  177  182 1   
   179  178  179 1   
   180  178  180 1   
   181  178  181 1   
   182  184  185 1   
   183  184  186 1   
   184  187  188 1   
   185  187  189 1   
   186  190  191 1   
   187  190  192 1   
@<TRIPOS>SUBSTRUCTURE
     1 MOL         1 TEMP              0 ****  ****    0 ROOT
