@<TRIPOS>MOLECULE
MOL
  181   177     1     0     0
SMALL
resp


@<TRIPOS>ATOM
      1 C1        -13.1730   -4.5600   -3.6440 c3        1 MOL     -0.391904
      2 C2        -12.1890   -4.5060   -2.3750 c         1 MOL      0.743127
      3 O1        -12.0730   -5.5300   -1.7890 o         1 MOL     -0.605193
      4 H1        -12.5940   -4.7640   -4.5440 hc        1 MOL      0.098764
      5 H2        -13.9100   -5.3500   -3.4990 hc        1 MOL      0.098764
      6 H3        -13.6820   -3.6020   -3.7500 hc        1 MOL      0.098764
      7 N1        -11.6230   -3.4190   -1.9320 n         1 MOL     -0.640492
      8 C3        -11.5220   -2.0210   -2.4890 c3        1 MOL      0.155304
      9 C4        -11.9860   -1.0050   -1.4260 c         1 MOL      0.443616
     10 O2        -12.2280    0.1580   -1.7730 o         1 MOL     -0.541867
     11 C5        -10.1230   -1.7140   -2.9040 c3        1 MOL     -0.207135
     12 C6         -9.0910   -2.1130   -1.8780 c         1 MOL      0.791373
     13 O3         -7.9550   -2.4360   -2.3510 o         1 MOL     -0.760087
     14 O4         -9.2970   -2.1230   -0.6430 o         1 MOL     -0.760087
     15 H4        -11.2320   -3.6150   -1.0260 hn        1 MOL      0.309613
     16 H5        -12.2210   -1.8980   -3.3160 h1        1 MOL      0.067744
     17 H6        -10.0270   -0.6640   -3.1890 hc        1 MOL      0.065433
     18 H7         -9.8730   -2.2240   -3.8330 hc        1 MOL      0.065433
     19 N2        -12.1580   -1.3860   -0.1480 n         1 MOL     -0.390742
     20 C7        -12.6430   -0.5730    0.9300 c3        1 MOL      0.089886
     21 C8        -11.7170    0.5460    1.4400 c         1 MOL      0.362102
     22 O5        -12.2310    1.4110    2.1780 o         1 MOL     -0.551304
     23 C9        -12.8590   -1.4420    2.1660 c3        1 MOL     -0.190537
     24 H8        -11.8880   -2.3430    0.0650 hn        1 MOL      0.293854
     25 H9        -13.6160   -0.1650    0.6310 h1        1 MOL      0.085002
     26 H10       -11.9220   -1.9430    2.4020 hc        1 MOL      0.063226
     27 H11       -13.2920   -0.9000    3.0050 hc        1 MOL      0.063226
     28 H12       -13.5300   -2.2700    1.9240 hc        1 MOL      0.063226
     29 N3        -10.4030    0.5860    1.1910 n         1 MOL      0.066594
     30 C10        -9.4590    1.7120    1.3930 c3        1 MOL     -0.330470
     31 C11        -8.3110    1.6940    0.3320 c         1 MOL      0.573868
     32 O6         -8.0190    0.6320   -0.2030 o         1 MOL     -0.499467
     33 C12        -8.8830    1.5720    2.8260 c3        1 MOL      0.110417
     34 C13        -8.3340    0.2160    3.1550 c         1 MOL      0.614341
     35 O7         -7.9020   -0.5240    2.2340 o         1 MOL     -0.690387
     36 O8         -8.2850   -0.1230    4.3350 o         1 MOL     -0.690387
     37 H13        -9.9700   -0.1530    0.6580 hn        1 MOL      0.051846
     38 H14       -10.0670    2.6060    1.2430 h1        1 MOL      0.106999
     39 H15        -9.8060    1.6740    3.4070 hc        1 MOL      0.001988
     40 H16        -8.2470    2.4130    3.0740 hc        1 MOL      0.001988
     41 N4         -7.6750    2.8140    0.1360 n         1 MOL     -0.496537
     42 C14        -6.3940    2.9460   -0.5450 c3        1 MOL      0.051144
     43 C15        -5.2620    2.6860    0.3760 c         1 MOL      0.486240
     44 O9         -5.3600    2.6220    1.5710 o         1 MOL     -0.421648
     45 H17        -8.1010    3.6350    0.5600 hn        1 MOL      0.325658
     46 H18        -6.3130    3.9530   -0.9640 h1        1 MOL      0.055087
     47 H19        -6.3660    2.3150   -1.4360 h1        1 MOL      0.055087
     48 N5         -4.0650    2.4560   -0.1650 n         1 MOL     -0.586829
     49 C16        -2.8450    2.1650    0.6580 c3        1 MOL      0.171705
     50 C17        -1.5840    3.1100    0.4290 c         1 MOL      0.466310
     51 O10        -0.5500    2.8030    1.0220 o         1 MOL     -0.434247
     52 C18        -2.3880    0.7290    0.6150 c3        1 MOL     -0.156790
     53 C19        -3.4780   -0.2750    1.0810 c         1 MOL      0.411200
     54 N6         -3.2670   -0.9170    2.1870 n         1 MOL     -0.524495
     55 O11        -4.4860   -0.4650    0.4540 o         1 MOL     -0.523784
     56 H20        -3.9370    2.4120   -1.1580 hn        1 MOL      0.275634
     57 H21        -3.1540    2.4560    1.6600 h1        1 MOL      0.079710
     58 H22        -1.4500    0.5100    1.1310 hc        1 MOL      0.095217
     59 H23        -2.1260    0.4740   -0.4080 hc        1 MOL      0.095217
     60 H24        -2.3970   -0.7510    2.6650 hn        1 MOL      0.307974
     61 H25        -3.8060   -1.7360    2.4350 hn        1 MOL      0.307974
     62 N7         -1.6200    4.1110   -0.5190 n         1 MOL     -0.438000
     63 C20        -0.3890    4.7740   -0.9970 c3        1 MOL     -0.040124
     64 C21         0.1930    5.7170    0.0360 c         1 MOL      0.536692
     65 O12        -0.3850    5.9100    1.1010 o         1 MOL     -0.542452
     66 H26        -2.5040    4.2800   -0.9860 hn        1 MOL      0.268253
     67 H27        -0.7350    5.3460   -1.8550 h1        1 MOL      0.098275
     68 H28         0.3230    4.0230   -1.3320 h1        1 MOL      0.098275
     69 N8          1.4090    6.1840   -0.0850 n         1 MOL     -0.404061
     70 C22         2.3450    6.2860   -1.2570 c3        1 MOL     -0.187164
     71 C23         3.4410    5.2340   -1.2290 c         1 MOL      0.585647
     72 O13         4.2320    5.0410   -2.1610 o         1 MOL     -0.541456
     73 C24         2.9270    7.6810   -1.4120 c3        1 MOL      0.393689
     74 C25         1.9980    8.8780   -1.4100 c3        1 MOL     -0.248185
     75 O14         3.8330    7.9290   -0.3660 oh        1 MOL     -0.593913
     76 H29         1.8330    6.5470    0.7660 hn        1 MOL      0.318260
     77 H30         1.6760    6.1210   -2.1070 h1        1 MOL      0.092524
     78 H31         3.5380    7.6870   -2.3240 h1        1 MOL     -0.012436
     79 H32         4.5940    8.2490   -0.8510 ho        1 MOL      0.378511
     80 H33         1.5420    8.9570   -2.3940 hc        1 MOL      0.055916
     81 H34         1.3230    8.7950   -0.5650 hc        1 MOL      0.055916
     82 H35         2.4680    9.8510   -1.2640 hc        1 MOL      0.055916
     83 N9          3.4850    4.4500   -0.1400 n         1 MOL     -0.409771
     84 C26         4.5520    3.5320    0.0680 c3        1 MOL      0.068730
     85 C27         4.0550    2.0860   -0.3290 c         1 MOL      0.646716
     86 O15         3.0160    1.6680    0.0880 o         1 MOL     -0.576840
     87 C28         5.2790    3.8010    1.4580 c3        1 MOL     -0.024753
     88 C29         6.1950    5.0060    1.3770 c3        1 MOL      0.201866
     89 C30         6.0380    2.5560    1.8610 c3        1 MOL      0.060612
     90 C31         6.7420    5.5960    2.6480 c3        1 MOL     -0.277784
     91 H36         2.9610    4.7860    0.6530 hn        1 MOL      0.255447
     92 H37         5.4060    3.7540   -0.5930 h1        1 MOL      0.021532
     93 H38         4.5230    4.0060    2.2180 hc        1 MOL      0.035063
     94 H39         5.6720    5.7780    0.8030 hc        1 MOL     -0.043338
     95 H40         7.0470    4.8450    0.7200 hc        1 MOL     -0.043338
     96 H41         6.8010    2.2990    1.1280 hc        1 MOL     -0.014403
     97 H42         6.5350    2.7910    2.8000 hc        1 MOL     -0.014403
     98 H43         5.3720    1.6910    1.9340 hc        1 MOL     -0.014403
     99 H44         7.0040    4.8140    3.3650 hc        1 MOL      0.056123
    100 H45         7.5670    6.2910    2.4740 hc        1 MOL      0.056123
    101 H46         5.8590    6.1350    3.0060 hc        1 MOL      0.056123
    102 N10         4.7420    1.2090   -1.0770 n         1 MOL     -0.389189
    103 C32         6.1310    1.3180   -1.4920 c3        1 MOL      0.053597
    104 C33         7.0640    0.1000   -1.2110 c         1 MOL      0.628494
    105 O16         6.6020   -1.0700   -1.0220 o         1 MOL     -0.576453
    106 C34         6.1730    1.7310   -3.0360 c3        1 MOL     -0.137313
    107 C35         5.1730    1.0340   -3.9000 c         1 MOL      0.708336
    108 O17         3.9820    1.4820   -3.9770 o         1 MOL     -0.735193
    109 O18         5.6000    0.0370   -4.5360 o         1 MOL     -0.735193
    110 H47         4.5130    0.2400   -0.9470 hn        1 MOL      0.288943
    111 H48         6.6280    2.1110   -0.9430 h1        1 MOL      0.003040
    112 H49         7.1760    1.4240   -3.3330 hc        1 MOL     -0.016140
    113 H50         5.9630    2.7960   -3.1400 hc        1 MOL     -0.016140
    114 N11         8.3490    0.3730   -0.9050 n         1 MOL     -0.541124
    115 C36         9.4120   -0.6960   -0.8420 c3        1 MOL      0.443428
    116 C37         9.7240   -1.0610    0.5840 c         1 MOL      0.274753
    117 O19        10.1520   -0.1880    1.3190 o         1 MOL     -0.536375
    118 C38        10.6620   -0.2020   -1.5040 c3        1 MOL     -0.351926
    119 C39        11.7620   -1.2670   -1.7130 ca        1 MOL      0.207955
    120 C40        11.7540   -2.0570   -2.8470 ca        1 MOL     -0.254926
    121 C41        12.6620   -1.5770   -0.6400 ca        1 MOL     -0.254926
    122 C42        12.5760   -3.1600   -3.0820 ca        1 MOL     -0.047323
    123 C43        13.5040   -2.6750   -0.8110 ca        1 MOL     -0.047323
    124 C44        13.4890   -3.4780   -1.9780 ca        1 MOL     -0.212799
    125 H51         8.6180    1.3250   -1.0760 hn        1 MOL      0.282955
    126 H52         9.0150   -1.6410   -1.2160 h1        1 MOL     -0.040889
    127 H53        10.9810    0.6590   -0.9090 hc        1 MOL      0.098818
    128 H54        10.3480    0.1360   -2.4930 hc        1 MOL      0.098818
    129 H55        10.9160   -2.0290   -3.5210 ha        1 MOL      0.151344
    130 H56        12.6190   -0.9940    0.2640 ha        1 MOL      0.151344
    131 H57        12.4720   -3.8160   -3.9330 ha        1 MOL      0.105217
    132 H58        14.2420   -2.9700   -0.0800 ha        1 MOL      0.105217
    133 H59        14.1520   -4.3250   -2.0750 ha        1 MOL      0.116166
    134 N12         9.9260   -2.3640    1.0630 n         1 MOL      0.203544
    135 C45         9.7230   -3.6950    0.3650 c3        1 MOL     -0.164337
    136 C46         8.2560   -4.2170    0.2380 c         1 MOL      0.567328
    137 O20         7.9820   -5.0850   -0.5910 o         1 MOL     -0.557659
    138 C47        10.6570   -4.6360    1.0720 c3        1 MOL      0.051740
    139 C48        10.7200   -4.1610    2.5400 c3        1 MOL     -0.042875
    140 C49        10.6230   -2.6470    2.3030 c3        1 MOL     -0.235070
    141 H60        10.0220   -3.6080   -0.6740 h1        1 MOL      0.054400
    142 H61        10.3850   -5.6860    0.9390 hc        1 MOL      0.008276
    143 H62        11.6650   -4.5310    0.6700 hc        1 MOL      0.008276
    144 H63         9.8390   -4.6140    3.0050 hc        1 MOL      0.029142
    145 H64        11.6400   -4.5500    2.9820 hc        1 MOL      0.029142
    146 H65        10.0340   -2.1940    3.0970 h1        1 MOL      0.084774
    147 H66        11.6310   -2.2310    2.3110 h1        1 MOL      0.084774
    148 N13         7.3690   -3.6600    1.1320 n         1 MOL     -0.296765
    149 C50         5.9050   -3.9020    1.1600 c3        1 MOL      0.047733
    150 C51         5.5370   -5.4640    1.1530 c         1 MOL      0.308333
    151 O21         5.7580   -6.1020    2.1920 o         1 MOL     -0.543289
    152 C52         5.3590   -3.2780    2.4420 c3        1 MOL      0.116603
    153 C53         5.4910   -1.7310    2.3210 c3        1 MOL     -0.099381
    154 C54         4.9980   -1.0350    3.6340 c         1 MOL      0.670549
    155 O22         5.7200   -0.9970    4.6450 o         1 MOL     -0.724598
    156 O23         3.7940   -0.6880    3.6570 o         1 MOL     -0.724598
    157 H67         7.6400   -2.9450    1.8020 hn        1 MOL      0.228844
    158 H68         5.3520   -3.4810    0.3180 h1        1 MOL      0.111210
    159 H69         5.8890   -3.6570    3.3170 hc        1 MOL     -0.011381
    160 H70         4.3040   -3.5290    2.4220 hc        1 MOL     -0.011381
    161 H71         4.8930   -1.4640    1.4540 hc        1 MOL     -0.034959
    162 H72         6.5270   -1.4490    2.0990 hc        1 MOL     -0.034959
    163 N14         5.1770   -6.1540    0.0560 n         1 MOL     -0.217872
    164 C55         4.9420   -5.6870   -1.2900 c3        1 MOL     -0.151713
    165 H73         5.7610   -6.0080   -1.9330 h1        1 MOL      0.074388
    166 H74         4.0050   -6.1030   -1.6610 h1        1 MOL      0.074388
    167 H75         4.8830   -4.6000   -1.2920 h1        1 MOL      0.074388
    168 H76         4.9900   -7.1310    0.2370 hn        1 MOL      0.235504
    169 Ca1        -6.7920   -1.7540   -0.0130 Ca        1 MOL      1.650338
    170 O24        -4.8780   -3.0890   -1.4210 oh        1 MOL     -0.782864
    171 H77        -4.5570   -2.7190   -2.2410 ho        1 MOL      0.399722
    172 H78        -4.0910   -3.2970   -0.9180 ho        1 MOL      0.399722
    173 O25        -7.5220   -4.4400   -0.0360 oh        1 MOL     -0.782864
    174 H79        -8.3180   -4.6170   -0.5280 ho        1 MOL      0.399722
    175 H80        -7.1120   -5.3010    0.0760 ho        1 MOL      0.399722
    176 O26        -5.9770   -0.2800   -1.9630 oh        1 MOL     -0.782864
    177 H81        -5.1320   -0.2200   -2.4140 ho        1 MOL      0.399722
    178 H82        -6.6080    0.0490   -2.6110 ho        1 MOL      0.399722
    179 O27        -5.6950   -3.0300    2.1020 oh        1 MOL     -0.782864
    180 H83        -5.7110   -2.5480    2.9210 ho        1 MOL      0.399722
    181 H84        -5.7640   -3.9490    2.3670 ho        1 MOL      0.399722
@<TRIPOS>BOND
     1    1    2 1   
     2    1    4 1   
     3    1    5 1   
     4    1    6 1   
     5    2    3 2   
     6    2    7 1   
     7    7    8 1   
     8    7   15 1   
     9    8    9 1   
    10    8   11 1   
    11    8   16 1   
    12    9   10 2   
    13    9   19 1   
    14   11   12 1   
    15   11   17 1   
    16   11   18 1   
    17   12   13 1   
    18   12   14 1   
    19   19   20 1   
    20   19   24 1   
    21   20   21 1   
    22   20   23 1   
    23   20   25 1   
    24   21   22 2   
    25   21   29 1   
    26   23   26 1   
    27   23   27 1   
    28   23   28 1   
    29   29   30 1   
    30   29   37 1   
    31   30   31 1   
    32   30   33 1   
    33   30   38 1   
    34   31   32 2   
    35   31   41 1   
    36   33   34 1   
    37   33   39 1   
    38   33   40 1   
    39   34   35 1   
    40   34   36 1   
    41   41   42 1   
    42   41   45 1   
    43   42   43 1   
    44   42   46 1   
    45   42   47 1   
    46   43   44 2   
    47   43   48 1   
    48   48   49 1   
    49   48   56 1   
    50   49   50 1   
    51   49   52 1   
    52   49   57 1   
    53   50   51 2   
    54   50   62 1   
    55   52   53 1   
    56   52   58 1   
    57   52   59 1   
    58   53   54 1   
    59   53   55 2   
    60   54   60 1   
    61   54   61 1   
    62   62   63 1   
    63   62   66 1   
    64   63   64 1   
    65   63   67 1   
    66   63   68 1   
    67   64   65 2   
    68   64   69 1   
    69   69   70 1   
    70   69   76 1   
    71   70   71 1   
    72   70   73 1   
    73   70   77 1   
    74   71   72 2   
    75   71   83 1   
    76   73   74 1   
    77   73   75 1   
    78   73   78 1   
    79   74   80 1   
    80   74   81 1   
    81   74   82 1   
    82   75   79 1   
    83   83   84 1   
    84   83   91 1   
    85   84   85 1   
    86   84   87 1   
    87   84   92 1   
    88   85   86 2   
    89   85  102 1   
    90   87   88 1   
    91   87   89 1   
    92   87   93 1   
    93   88   90 1   
    94   88   94 1   
    95   88   95 1   
    96   89   96 1   
    97   89   97 1   
    98   89   98 1   
    99   90   99 1   
   100   90  100 1   
   101   90  101 1   
   102  102  103 1   
   103  102  110 1   
   104  103  104 1   
   105  103  106 1   
   106  103  111 1   
   107  104  105 2   
   108  104  114 1   
   109  106  107 1   
   110  106  112 1   
   111  106  113 1   
   112  107  108 1   
   113  107  109 1   
   114  114  115 1   
   115  114  125 1   
   116  115  116 1   
   117  115  118 1   
   118  115  126 1   
   119  116  117 2   
   120  116  134 1   
   121  118  119 1   
   122  118  127 1   
   123  118  128 1   
   124  119  120 ar  
   125  119  121 ar  
   126  120  122 ar  
   127  120  129 1   
   128  121  123 ar  
   129  121  130 1   
   130  122  124 ar  
   131  122  131 1   
   132  123  124 ar  
   133  123  132 1   
   134  124  133 1   
   135  134  135 1   
   136  134  140 1   
   137  135  136 1   
   138  135  138 1   
   139  135  141 1   
   140  136  137 2   
   141  136  148 1   
   142  138  139 1   
   143  138  142 1   
   144  138  143 1   
   145  139  140 1   
   146  139  144 1   
   147  139  145 1   
   148  140  146 1   
   149  140  147 1   
   150  148  149 1   
   151  148  157 1   
   152  149  150 1   
   153  149  152 1   
   154  149  158 1   
   155  150  151 2   
   156  150  163 1   
   157  152  153 1   
   158  152  159 1   
   159  152  160 1   
   160  153  154 1   
   161  153  161 1   
   162  153  162 1   
   163  154  155 1   
   164  154  156 1   
   165  163  164 1   
   166  163  168 1   
   167  164  165 1   
   168  164  166 1   
   169  164  167 1   
   170  170  171 1   
   171  170  172 1   
   172  173  174 1   
   173  173  175 1   
   174  176  177 1   
   175  176  178 1   
   176  179  180 1   
   177  179  181 1   
@<TRIPOS>SUBSTRUCTURE
     1 MOL         1 TEMP              0 ****  ****    0 ROOT
