@<TRIPOS>MOLECULE
MOL
  195   189     1     0     0
SMALL
resp


@<TRIPOS>ATOM
      1 C1         -3.7090    2.3810   -3.4740 c3        1 MOL     -0.379565
      2 C2         -2.9150    2.7300   -2.1520 c         1 MOL      0.584549
      3 O1         -2.4010    1.7560   -1.6210 o         1 MOL     -0.420421
      4 H1         -4.6950    1.9960   -3.2150 hc        1 MOL      0.089638
      5 H2         -3.8180    3.2800   -4.0810 hc        1 MOL      0.089638
      6 H3         -3.1620    1.6260   -4.0380 hc        1 MOL      0.089638
      7 N1         -2.9190    4.0130   -1.6830 n         1 MOL     -0.506744
      8 C3         -2.5110    4.3880   -0.2970 c3        1 MOL     -0.331318
      9 C4         -0.9660    4.3430   -0.0150 c         1 MOL      0.822392
     10 O2         -0.5120    3.8810    0.9930 o         1 MOL     -0.542970
     11 C5         -3.3140    3.6870    0.8180 c3        1 MOL     -0.023879
     12 C6         -4.8140    3.6380    0.5630 c         1 MOL      0.545742
     13 O3         -5.3750    2.7710   -0.0610 o         1 MOL     -0.687043
     14 O4         -5.5500    4.4910    1.0630 o         1 MOL     -0.687043
     15 H4         -3.3370    4.7150   -2.2730 hn        1 MOL      0.345037
     16 H5         -2.7880    5.4450   -0.1800 h1        1 MOL      0.139764
     17 H6         -3.0560    4.1890    1.7590 hc        1 MOL      0.069604
     18 H7         -2.8960    2.7080    1.0670 hc        1 MOL      0.069604
     19 N2         -0.2540    4.9650   -0.9530 n         1 MOL     -0.556896
     20 C7          1.1730    5.1710   -1.0950 c3        1 MOL     -0.130026
     21 C8          1.6690    6.2690   -0.1530 c         1 MOL      0.480929
     22 O5          0.8740    7.1380    0.2110 o         1 MOL     -0.566081
     23 C9          1.4920    5.4370   -2.5680 c3        1 MOL      0.188607
     24 C10         1.1460    6.8640   -3.0570 c3        1 MOL      0.091304
     25 C11         0.9030    4.2800   -3.4300 c3        1 MOL     -0.072415
     26 C12         1.8400    7.3530   -4.2860 c3        1 MOL     -0.329253
     27 H8         -0.8130    5.3920   -1.6760 hn        1 MOL      0.278502
     28 H9          1.7550    4.2720   -0.8670 h1        1 MOL      0.120020
     29 H10         2.5700    5.3320   -2.6440 hc        1 MOL      0.020745
     30 H11         1.4070    7.6210   -2.3160 hc        1 MOL      0.013620
     31 H12         0.0680    6.9960   -3.1580 hc        1 MOL      0.013620
     32 H13        -0.1800    4.3210   -3.5360 hc        1 MOL     -0.000211
     33 H14         1.2490    4.5050   -4.4350 hc        1 MOL     -0.000211
     34 H15         1.3980    3.3530   -3.1410 hc        1 MOL     -0.000211
     35 H16         1.5960    6.6380   -5.0720 hc        1 MOL      0.071179
     36 H17         1.3810    8.3250   -4.4810 hc        1 MOL      0.071179
     37 H18         2.8920    7.4930   -4.0590 hc        1 MOL      0.071179
     38 N3          2.9650    6.3760    0.1730 n         1 MOL     -0.341862
     39 C13         4.2110    5.6260   -0.2000 c3        1 MOL     -0.181327
     40 C14         4.5820    4.6020    0.8490 c         1 MOL      0.642229
     41 O6          5.4610    3.8120    0.5510 o         1 MOL     -0.560390
     42 C15         5.4000    6.5900   -0.6360 c3        1 MOL     -0.109727
     43 C16         5.6860    7.6250    0.4680 c         1 MOL      0.670654
     44 O7          5.5040    8.8550    0.1740 o         1 MOL     -0.705469
     45 O8          6.1560    7.2800    1.6180 o         1 MOL     -0.705469
     46 H19         3.1170    7.2280    0.7030 hn        1 MOL      0.271985
     47 H20         3.9620    4.9570   -1.0310 h1        1 MOL      0.082768
     48 H21         5.1580    7.1310   -1.5530 hc        1 MOL      0.036651
     49 H22         6.2590    5.9520   -0.8700 hc        1 MOL      0.036651
     50 N4          3.8170    4.4020    1.9000 n         1 MOL     -0.405248
     51 C17         3.7080    3.2530    2.7780 c3        1 MOL     -0.072878
     52 C18         5.0380    2.5330    3.1900 c         1 MOL      0.498138
     53 O9          6.0180    3.2110    3.5400 o         1 MOL     -0.486976
     54 H23         3.2310    5.1750    2.1490 hn        1 MOL      0.296598
     55 H24         3.0080    2.5430    2.3370 h1        1 MOL      0.076174
     56 H25         3.1970    3.5660    3.6920 h1        1 MOL      0.076174
     57 N5          5.0770    1.1990    3.0790 n         1 MOL     -0.436438
     58 C19         6.2340    0.3740    3.3730 c3        1 MOL     -0.000775
     59 C20         7.2200    0.3500    2.1200 c         1 MOL      0.451230
     60 O10         8.3920    0.1220    2.2560 o         1 MOL     -0.546945
     61 C21         5.8420   -1.0080    3.7780 c3        1 MOL     -0.124102
     62 C22         4.7280   -1.6320    2.9480 c         1 MOL      0.743697
     63 O11         5.1500   -2.0840    1.8680 o         1 MOL     -0.701225
     64 O12         3.5460   -1.6750    3.4100 o         1 MOL     -0.701225
     65 H26         4.3180    0.6870    2.6390 hn        1 MOL      0.256268
     66 H27         6.7710    0.8040    4.2160 h1        1 MOL      0.093841
     67 H28         5.4660   -0.9710    4.7950 hc        1 MOL      0.015819
     68 H29         6.6480   -1.7210    3.9190 hc        1 MOL      0.015819
     69 N6          6.7050    0.4760    0.8910 n         1 MOL     -0.068106
     70 C23         7.5190    0.2910   -0.3320 c3        1 MOL     -0.418952
     71 C24         7.7800   -1.1670   -0.7390 c         1 MOL      0.588485
     72 O13         8.5260   -1.3830   -1.6950 o         1 MOL     -0.613033
     73 H30         5.7790    0.8590    0.8220 hn        1 MOL      0.215770
     74 H31         8.4630    0.8390   -0.2630 h1        1 MOL      0.165669
     75 H32         7.0220    0.7280   -1.1980 h1        1 MOL      0.165669
     76 N7          7.2320   -2.1240   -0.0100 n         1 MOL      0.071200
     77 C25         7.2600   -3.5810   -0.2090 c3        1 MOL     -0.013474
     78 C26         6.7250   -4.1100   -1.5280 c         1 MOL      0.394050
     79 O14         7.2520   -5.0700   -2.1500 o         1 MOL     -0.511719
     80 C27         8.7080   -4.0860    0.1640 c3        1 MOL     -0.015634
     81 C28         9.2240   -3.6700    1.5260 c3        1 MOL     -0.290250
     82 C29         8.5690   -4.5570    2.6310 c         1 MOL      0.520950
     83 N8          7.7560   -3.9540    3.4490 n         1 MOL     -0.629892
     84 O15         8.7980   -5.7210    2.7780 o         1 MOL     -0.557486
     85 H33         6.6500   -1.8220    0.7550 hn        1 MOL     -0.142490
     86 H34         6.5970   -3.9910    0.5420 h1        1 MOL      0.160323
     87 H35         9.4700   -3.7930   -0.5590 hc        1 MOL      0.048542
     88 H36         8.5870   -5.1660    0.2310 hc        1 MOL      0.048542
     89 H37         8.9390   -2.6420    1.7440 hc        1 MOL      0.095004
     90 H38        10.3050   -3.8100    1.4870 hc        1 MOL      0.095004
     91 H39         7.6970   -2.9480    3.3890 hn        1 MOL      0.329469
     92 H40         7.4170   -4.5370    4.1950 hn        1 MOL      0.329469
     93 N9          5.8040   -3.3200   -2.0970 n         1 MOL     -0.359313
     94 C30         5.2360   -3.3840   -3.4740 c3        1 MOL     -0.152459
     95 C31         3.7050   -3.3170   -3.5880 c         1 MOL      0.534044
     96 O16         3.1790   -3.3640   -4.6990 o         1 MOL     -0.579136
     97 C32         5.7750   -2.2540   -4.3800 c3        1 MOL      0.282207
     98 C33         5.4920   -0.8570   -3.8260 c3        1 MOL     -0.375148
     99 C34         7.2960   -2.3990   -4.5160 c3        1 MOL     -0.375148
    100 H41         5.4130   -2.6020   -1.5130 hn        1 MOL      0.285416
    101 H42         5.6380   -4.2810   -3.9410 h1        1 MOL      0.136784
    102 H43         5.2930   -2.2410   -5.3640 hc        1 MOL     -0.016779
    103 H44         5.8750   -0.7600   -2.8030 hc        1 MOL      0.092126
    104 H45         5.9700   -0.1110   -4.4490 hc        1 MOL      0.092126
    105 H46         4.4060   -0.7370   -3.7890 hc        1 MOL      0.092126
    106 H47         7.7430   -1.5530   -5.0350 hc        1 MOL      0.092126
    107 H48         7.8790   -2.5700   -3.6160 hc        1 MOL      0.092126
    108 H49         7.3970   -3.3480   -5.0350 hc        1 MOL      0.092126
    109 N10         3.0090   -3.1130   -2.5120 n         1 MOL     -0.364179
    110 C35         1.4950   -2.7720   -2.5100 c3        1 MOL      0.103565
    111 C36         0.8460   -3.0260   -1.1640 c         1 MOL      0.484021
    112 O17         1.5190   -3.6520   -0.2310 o         1 MOL     -0.505382
    113 C37         1.5240   -1.2310   -2.8920 c3        1 MOL     -0.224911
    114 C38         0.1650   -0.4590   -2.9250 c         1 MOL      0.634406
    115 N11         0.1250    0.6220   -2.2050 n         1 MOL     -0.712453
    116 O18        -0.8050   -0.9350   -3.3640 o         1 MOL     -0.552234
    117 H50         3.5040   -2.9430   -1.6460 hn        1 MOL      0.215902
    118 H51         1.0650   -3.4620   -3.2430 h1        1 MOL      0.111762
    119 H52         2.1170   -0.9990   -3.7810 hc        1 MOL      0.068389
    120 H53         2.0550   -0.6910   -2.1150 hc        1 MOL      0.068389
    121 H54         0.9110    0.8140   -1.5940 hn        1 MOL      0.331501
    122 H55        -0.8030    0.9350   -1.9570 hn        1 MOL      0.331501
    123 N12        -0.4680   -2.6910   -1.1270 n         1 MOL     -0.499679
    124 C39        -1.1540   -2.7030    0.1390 c3        1 MOL      0.257730
    125 C40        -2.5990   -3.2130   -0.1480 c         1 MOL      0.519252
    126 O19        -3.2800   -2.7280   -1.0940 o         1 MOL     -0.609636
    127 C41        -1.1760   -1.3680    0.8560 c3        1 MOL     -0.079358
    128 C42        -1.6830   -1.3720    2.2830 ca        1 MOL      0.028542
    129 C43        -3.0530   -1.1710    2.4470 ca        1 MOL     -0.143985
    130 C44        -0.8710   -1.6540    3.3870 ca        1 MOL     -0.143985
    131 C45        -3.6250   -1.3330    3.7380 ca        1 MOL     -0.252830
    132 C46        -1.4090   -1.5540    4.6590 ca        1 MOL     -0.252830
    133 C47        -2.7910   -1.3830    4.8330 ca        1 MOL      0.302556
    134 O20        -3.2520   -1.4120    6.0950 oh        1 MOL     -0.486986
    135 H56        -0.7800   -2.1660   -1.9330 hn        1 MOL      0.293581
    136 H57        -0.5390   -3.3110    0.8080 h1        1 MOL      0.021641
    137 H58        -1.6890   -0.5950    0.2820 hc        1 MOL      0.031357
    138 H59        -0.1400   -1.0290    0.7560 hc        1 MOL      0.031357
    139 H60        -3.6500   -0.8580    1.6050 ha        1 MOL      0.166332
    140 H61         0.0700   -2.1540    3.2430 ha        1 MOL      0.166332
    141 H62        -4.7050   -1.2590    3.8190 ha        1 MOL      0.154083
    142 H63        -0.7270   -1.6990    5.4800 ha        1 MOL      0.154083
    143 H64        -4.2000   -1.4030    6.0170 ho        1 MOL      0.353118
    144 N13        -3.1100   -4.0980    0.7140 n         1 MOL     -0.622901
    145 C48        -4.2480   -4.9150    0.3460 c3        1 MOL      0.240552
    146 C49        -5.4730   -4.7020    1.2460 c         1 MOL      0.558621
    147 O21        -5.6520   -5.3500    2.3080 o         1 MOL     -0.571902
    148 C50        -3.8020   -6.4200    0.2340 c3        1 MOL      0.010987
    149 C51        -4.8570   -7.3330   -0.5030 c3        1 MOL     -0.192398
    150 C52        -4.4430   -8.7890   -0.5200 c         1 MOL      0.703667
    151 O22        -4.7470   -9.4770    0.4940 o         1 MOL     -0.692009
    152 O23        -3.8510   -9.2240   -1.5230 o         1 MOL     -0.692009
    153 H65        -2.5430   -4.3490    1.5030 hn        1 MOL      0.318482
    154 H66        -4.5260   -4.6950   -0.6870 h1        1 MOL      0.107021
    155 H67        -3.6490   -6.8160    1.2370 hc        1 MOL      0.010487
    156 H68        -2.8340   -6.3680   -0.2660 hc        1 MOL      0.010487
    157 H69        -5.0530   -7.0490   -1.5300 hc        1 MOL      0.032003
    158 H70        -5.8030   -7.2920    0.0510 hc        1 MOL      0.032003
    159 N14        -6.3860   -3.8290    0.9640 n         1 MOL     -0.721543
    160 C53        -6.3760   -2.9440   -0.1460 c3        1 MOL      0.351647
    161 C54        -6.6050   -3.6390   -1.5060 c         1 MOL      0.434348
    162 O24        -7.0800   -4.7480   -1.6180 o         1 MOL     -0.504432
    163 C55        -7.4470   -1.8310    0.1210 c3        1 MOL      0.122476
    164 C56        -7.1180   -0.9910    1.3450 c3        1 MOL     -0.266950
    165 C57        -8.1110    0.0430    1.7170 c         1 MOL      0.804762
    166 O25        -9.2440   -0.2360    2.1740 o         1 MOL     -0.701846
    167 O26        -7.7400    1.2090    1.5750 o         1 MOL     -0.701846
    168 H71        -7.1700   -3.7690    1.5990 hn        1 MOL      0.389387
    169 H72        -5.4710   -2.3450   -0.2070 h1        1 MOL      0.030266
    170 H73        -8.4500   -2.2490    0.2220 hc        1 MOL     -0.088724
    171 H74        -7.4630   -1.2370   -0.7970 hc        1 MOL     -0.088724
    172 H75        -6.1490   -0.5090    1.1830 hc        1 MOL      0.035211
    173 H76        -7.0560   -1.6430    2.2170 hc        1 MOL      0.035211
    174 N15        -6.2740   -2.9180   -2.6070 n         1 MOL     -0.393674
    175 C58        -6.2810   -3.4300   -4.0170 c3        1 MOL     -0.233135
    176 H77        -5.4070   -4.0600   -4.1790 h1        1 MOL      0.111576
    177 H78        -7.1860   -4.0140   -4.1870 h1        1 MOL      0.111576
    178 H79        -6.2550   -2.5890   -4.7100 h1        1 MOL      0.111576
    179 H80        -5.7390   -2.1030   -2.3560 hn        1 MOL      0.328500
    180 Ca1        -7.8620    3.2840    0.1380 Ca        1 MOL      1.746468
    181 O27        -9.8150    3.9540   -1.5640 oh        1 MOL     -0.855515
    182 O28        -8.3700    3.7450    2.8450 oh        1 MOL     -0.855515
    183 H81       -10.5630    3.3620   -1.5130 ho        1 MOL      0.399422
    184 H82        -7.9750    4.4290    3.3890 ho        1 MOL      0.399422
    185 H83        -9.9280    4.4270   -2.3890 ho        1 MOL      0.399422
    186 H84        -9.0120    3.3260    3.4250 ho        1 MOL      0.399422
    187 O29       -10.2790    1.8990    0.6850 oh        1 MOL     -0.855515
    188 H85        -9.9080    1.1570    1.1550 ho        1 MOL      0.399422
    189 H86       -11.1810    1.6410    0.4960 ho        1 MOL      0.399422
    190 O30        -7.9150    1.3190   -1.6730 oh        1 MOL     -0.855515
    191 H87        -7.3910    0.6140   -2.0590 ho        1 MOL      0.399422
    192 H88        -8.6780    1.3960   -2.2400 ho        1 MOL      0.399422
    193 O31        -9.0950    5.5400    0.5380 oh        1 MOL     -0.855515
    194 H89        -9.2620    5.9260    1.4080 ho        1 MOL      0.399422
    195 H90        -9.7100    5.9860   -0.0390 ho        1 MOL      0.399422
@<TRIPOS>BOND
     1    1    2 1   
     2    1    4 1   
     3    1    5 1   
     4    1    6 1   
     5    2    3 2   
     6    2    7 1   
     7    7    8 1   
     8    7   15 1   
     9    8    9 1   
    10    8   11 1   
    11    8   16 1   
    12    9   10 2   
    13    9   19 1   
    14   11   12 1   
    15   11   17 1   
    16   11   18 1   
    17   12   13 1   
    18   12   14 1   
    19   19   20 1   
    20   19   27 1   
    21   20   21 1   
    22   20   23 1   
    23   20   28 1   
    24   21   22 2   
    25   21   38 1   
    26   23   24 1   
    27   23   25 1   
    28   23   29 1   
    29   24   26 1   
    30   24   30 1   
    31   24   31 1   
    32   25   32 1   
    33   25   33 1   
    34   25   34 1   
    35   26   35 1   
    36   26   36 1   
    37   26   37 1   
    38   38   39 1   
    39   38   46 1   
    40   39   40 1   
    41   39   42 1   
    42   39   47 1   
    43   40   41 2   
    44   40   50 1   
    45   42   43 1   
    46   42   48 1   
    47   42   49 1   
    48   43   44 1   
    49   43   45 1   
    50   50   51 1   
    51   50   54 1   
    52   51   52 1   
    53   51   55 1   
    54   51   56 1   
    55   52   53 2   
    56   52   57 1   
    57   57   58 1   
    58   57   65 1   
    59   58   59 1   
    60   58   61 1   
    61   58   66 1   
    62   59   60 2   
    63   59   69 1   
    64   61   62 1   
    65   61   67 1   
    66   61   68 1   
    67   62   63 1   
    68   62   64 1   
    69   69   70 1   
    70   69   73 1   
    71   70   71 1   
    72   70   74 1   
    73   70   75 1   
    74   71   72 2   
    75   71   76 1   
    76   76   77 1   
    77   76   85 1   
    78   77   78 1   
    79   77   80 1   
    80   77   86 1   
    81   78   79 2   
    82   78   93 1   
    83   80   81 1   
    84   80   87 1   
    85   80   88 1   
    86   81   82 1   
    87   81   89 1   
    88   81   90 1   
    89   82   83 1   
    90   82   84 2   
    91   83   91 1   
    92   83   92 1   
    93   93   94 1   
    94   93  100 1   
    95   94   95 1   
    96   94   97 1   
    97   94  101 1   
    98   95   96 2   
    99   95  109 1   
   100   97   98 1   
   101   97   99 1   
   102   97  102 1   
   103   98  103 1   
   104   98  104 1   
   105   98  105 1   
   106   99  106 1   
   107   99  107 1   
   108   99  108 1   
   109  109  110 1   
   110  109  117 1   
   111  110  111 1   
   112  110  113 1   
   113  110  118 1   
   114  111  112 2   
   115  111  123 1   
   116  113  114 1   
   117  113  119 1   
   118  113  120 1   
   119  114  115 1   
   120  114  116 2   
   121  115  121 1   
   122  115  122 1   
   123  123  124 1   
   124  123  135 1   
   125  124  125 1   
   126  124  127 1   
   127  124  136 1   
   128  125  126 2   
   129  125  144 1   
   130  127  128 1   
   131  127  137 1   
   132  127  138 1   
   133  128  129 ar  
   134  128  130 ar  
   135  129  131 ar  
   136  129  139 1   
   137  130  132 ar  
   138  130  140 1   
   139  131  133 ar  
   140  131  141 1   
   141  132  133 ar  
   142  132  142 1   
   143  133  134 1   
   144  134  143 1   
   145  144  145 1   
   146  144  153 1   
   147  145  146 1   
   148  145  148 1   
   149  145  154 1   
   150  146  147 2   
   151  146  159 1   
   152  148  149 1   
   153  148  155 1   
   154  148  156 1   
   155  149  150 1   
   156  149  157 1   
   157  149  158 1   
   158  150  151 1   
   159  150  152 1   
   160  159  160 1   
   161  159  168 1   
   162  160  161 1   
   163  160  163 1   
   164  160  169 1   
   165  161  162 2   
   166  161  174 1   
   167  163  164 1   
   168  163  170 1   
   169  163  171 1   
   170  164  165 1   
   171  164  172 1   
   172  164  173 1   
   173  165  166 1   
   174  165  167 1   
   175  174  175 1   
   176  174  179 1   
   177  175  176 1   
   178  175  177 1   
   179  175  178 1   
   180  181  183 1   
   181  181  185 1   
   182  182  184 1   
   183  182  186 1   
   184  187  188 1   
   185  187  189 1   
   186  190  191 1   
   187  190  192 1   
   188  193  194 1   
   189  193  195 1   
@<TRIPOS>SUBSTRUCTURE
     1 MOL         1 TEMP              0 ****  ****    0 ROOT
