@<TRIPOS>MOLECULE
MOL
  192   187     1     0     0
SMALL
resp


@<TRIPOS>ATOM
      1 C1         -2.3590    7.9140    0.9160 c3        1 MOL     -0.346759
      2 C2         -2.5640    6.3190    1.0030 c         1 MOL      0.607312
      3 O1         -2.1200    5.6910    1.9580 o         1 MOL     -0.555931
      4 H1         -2.6410    8.3690    1.8650 hc        1 MOL      0.096110
      5 H2         -1.3130    8.1350    0.7040 hc        1 MOL      0.096110
      6 H3         -2.9850    8.3190    0.1210 hc        1 MOL      0.096110
      7 N1         -3.1400    5.6800   -0.0140 n         1 MOL     -0.460071
      8 C3         -3.2450    4.1890   -0.1830 c3        1 MOL      0.053096
      9 C4         -1.8520    3.3890   -0.2170 c         1 MOL      0.317779
     10 O2         -1.7560    2.2570    0.2130 o         1 MOL     -0.453622
     11 C5         -4.1140    3.8270   -1.3920 c3        1 MOL     -0.166226
     12 C6         -3.7780    4.6370   -2.6150 c         1 MOL      0.625821
     13 O3         -4.2120    5.8250   -2.7220 o         1 MOL     -0.670466
     14 O4         -3.0690    4.0450   -3.4590 o         1 MOL     -0.670466
     15 H4         -3.4060    6.2040   -0.8360 hn        1 MOL      0.295881
     16 H5         -3.8100    3.6710    0.5900 h1        1 MOL      0.097057
     17 H6         -5.1780    3.9490   -1.1850 hc        1 MOL      0.057182
     18 H7         -4.0380    2.7810   -1.6970 hc        1 MOL      0.057182
     19 N2         -0.7880    4.0390   -0.7380 n         1 MOL     -0.192856
     20 C7          0.4870    3.4700   -1.0660 c3        1 MOL     -0.116951
     21 C8          1.4030    3.3180    0.2040 c         1 MOL      0.558155
     22 O5          1.5540    4.2140    0.9800 o         1 MOL     -0.552274
     23 C9          1.2210    4.3190   -2.0700 c3        1 MOL      0.000942
     24 C10         0.4790    4.5490   -3.4090 c3        1 MOL     -0.130083
     25 C11         0.1720    3.1950   -4.2340 c3        1 MOL      0.132991
     26 C12        -0.4440    3.4430   -5.6400 c3        1 MOL     -0.176369
     27 N3         -1.9050    3.3550   -5.7700 n4        1 MOL     -0.069569
     28 H8         -0.8920    5.0380   -0.8220 hn        1 MOL      0.233384
     29 H9          0.2450    2.5020   -1.5150 h1        1 MOL      0.179712
     30 H10         2.2100    3.9390   -2.3320 hc        1 MOL      0.043989
     31 H11         1.4070    5.2990   -1.6170 hc        1 MOL      0.043989
     32 H12         1.0690    5.2920   -3.9360 hc        1 MOL      0.035068
     33 H13        -0.4880    4.9990   -3.1470 hc        1 MOL      0.035068
     34 H14        -0.4950    2.6290   -3.5950 hc        1 MOL      0.014304
     35 H15         1.1240    2.6480   -4.2910 hc        1 MOL      0.014304
     36 H16        -0.0290    2.6460   -6.2610 hx        1 MOL      0.103631
     37 H17        -0.1620    4.4410   -5.9590 hx        1 MOL      0.103631
     38 H18        -2.2900    2.4500   -5.5340 hn        1 MOL      0.230763
     39 H19        -2.5090    3.8910   -5.1480 hn        1 MOL      0.230763
     40 H20        -2.2540    3.5890   -6.6870 hn        1 MOL      0.230763
     41 N4          2.0440    2.1610    0.4120 n         1 MOL     -0.406681
     42 C13         2.2920    0.9660   -0.3600 c3        1 MOL     -0.285911
     43 C14         2.7360    1.1230   -1.8110 c         1 MOL      0.453314
     44 O6          1.9890    0.7660   -2.7140 o         1 MOL     -0.582911
     45 C15         1.0730   -0.0670   -0.0330 c3        1 MOL      0.087987
     46 C16         0.7110   -0.1370    1.4420 c         1 MOL      0.378622
     47 O7         -0.3950   -0.5980    1.6980 o         1 MOL     -0.615511
     48 O8          1.5070    0.1300    2.3690 o         1 MOL     -0.615511
     49 H21         2.6490    2.2910    1.2040 hn        1 MOL      0.259558
     50 H22         3.1080    0.5430    0.2210 h1        1 MOL      0.168966
     51 H23         1.3440   -1.0320   -0.4770 hc        1 MOL      0.064690
     52 H24         0.1970    0.2080   -0.6250 hc        1 MOL      0.064690
     53 N5          3.8510    1.7120   -2.1830 n         1 MOL     -0.262382
     54 C17         4.8550    2.0910   -1.1760 c3        1 MOL      0.028333
     55 C18         5.9990    2.9820   -1.7570 c         1 MOL      0.477608
     56 O9          5.9890    3.2740   -2.9550 o         1 MOL     -0.527326
     57 H25         4.0360    1.8400   -3.1670 hn        1 MOL      0.273513
     58 H26         5.2680    1.1760   -0.7320 h1        1 MOL      0.052416
     59 H27         4.4160    2.8000   -0.4770 h1        1 MOL      0.052416
     60 N6          7.1730    3.1900   -1.0780 n         1 MOL     -0.503609
     61 C19         7.5160    2.5790    0.2280 c3        1 MOL      0.114886
     62 C20         7.8780    1.1610    0.1250 c         1 MOL      0.687971
     63 O10         8.0130    0.6070   -0.9530 o         1 MOL     -0.514176
     64 C21         8.6490    3.3450    0.9220 c3        1 MOL     -0.306973
     65 C22         9.9000    3.6190    0.1180 c         1 MOL      0.718164
     66 O11        11.0170    3.1200    0.4440 o         1 MOL     -0.626905
     67 O12         9.7850    4.3530   -0.9150 o         1 MOL     -0.626905
     68 H28         7.8630    3.7240   -1.5790 hn        1 MOL      0.332269
     69 H29         6.5980    2.5660    0.8180 h1        1 MOL     -0.008229
     70 H30         8.8560    2.9060    1.9000 hc        1 MOL      0.057025
     71 H31         8.1790    4.2610    1.2830 hc        1 MOL      0.057025
     72 N7          8.0360    0.5040    1.2710 n         1 MOL     -0.401577
     73 C23         8.6090   -0.8240    1.3200 c3        1 MOL     -0.287667
     74 C24         7.5290   -1.9890    1.1590 c         1 MOL      0.514257
     75 O13         7.8650   -3.1470    1.0290 o         1 MOL     -0.554129
     76 H32         7.8030    1.0300    2.1060 hn        1 MOL      0.272018
     77 H33         9.0010   -1.0160    2.3170 h1        1 MOL      0.162755
     78 H34         9.4500   -0.9760    0.6450 h1        1 MOL      0.162755
     79 N8          6.2780   -1.6420    1.1060 n         1 MOL     -0.266480
     80 C25         5.0340   -2.5070    1.0530 c3        1 MOL      0.065411
     81 C26         4.4250   -2.4890   -0.3310 c         1 MOL      0.563755
     82 O14         4.3010   -1.4510   -0.8810 o         1 MOL     -0.480664
     83 C27         4.0210   -2.2350    2.1000 c3        1 MOL      0.503990
     84 C28         4.6650   -2.2780    3.4850 c3        1 MOL     -0.287895
     85 O15         3.0210   -3.1740    2.0440 oh        1 MOL     -0.651446
     86 H35         6.1310   -0.6440    1.1020 hn        1 MOL      0.078159
     87 H36         5.3930   -3.5360    1.1440 h1        1 MOL      0.031178
     88 H37         3.5360   -1.2700    2.0070 h1        1 MOL     -0.058244
     89 H38         2.4080   -2.9350    2.7440 ho        1 MOL      0.406818
     90 H39         3.8890   -2.3730    4.2380 hc        1 MOL      0.053908
     91 H40         5.3490   -3.1250    3.5610 hc        1 MOL      0.053908
     92 H41         5.1810   -1.3730    3.7910 hc        1 MOL      0.053908
     93 N9          3.8800   -3.5950   -0.8460 n         1 MOL     -0.430320
     94 C29         3.1310   -3.7430   -2.1510 c3        1 MOL     -0.209062
     95 C30         1.7670   -4.3410   -1.8290 c         1 MOL      0.500357
     96 O16         1.0520   -4.8070   -2.7220 o         1 MOL     -0.552769
     97 C31         3.9910   -4.5840   -3.2030 c3        1 MOL      0.090144
     98 C32         4.4710   -5.9720   -2.7920 c3        1 MOL      0.356597
     99 C33         5.2840   -3.7410   -3.5800 c3        1 MOL     -0.359536
    100 C34         3.4660   -7.0830   -2.9710 c3        1 MOL     -0.450190
    101 H42         4.1000   -4.4140   -0.3020 hn        1 MOL      0.295730
    102 H43         2.9330   -2.7230   -2.4930 h1        1 MOL      0.230702
    103 H44         3.4550   -4.6010   -4.1530 hc        1 MOL      0.047571
    104 H45         4.9520   -5.9030   -1.8180 hc        1 MOL     -0.070534
    105 H46         5.3270   -6.2040   -3.4200 hc        1 MOL     -0.070534
    106 H47         5.0590   -2.7490   -3.9390 hc        1 MOL      0.098354
    107 H48         5.8480   -3.5570   -2.6700 hc        1 MOL      0.098354
    108 H49         5.8200   -4.3600   -4.3020 hc        1 MOL      0.098354
    109 H50         3.3420   -7.2760   -4.0400 hc        1 MOL      0.100897
    110 H51         3.7210   -7.9690   -2.3850 hc        1 MOL      0.100897
    111 H52         2.4820   -6.8600   -2.5660 hc        1 MOL      0.100897
    112 N10         1.2810   -4.4300   -0.5660 n         1 MOL     -0.261392
    113 C35        -0.0900   -4.8560   -0.2430 c3        1 MOL     -0.099307
    114 C36        -1.1950   -3.8650   -0.6270 c         1 MOL      0.730911
    115 O17        -0.9110   -2.6840   -0.8610 o         1 MOL     -0.542048
    116 C37        -0.3220   -5.2490    1.2540 c3        1 MOL      0.285973
    117 C38        -0.4490   -4.1130    2.2000 c3        1 MOL     -0.174043
    118 O18         0.7440   -6.0730    1.6580 oh        1 MOL     -0.590713
    119 H53         1.8720   -3.9830    0.1150 hn        1 MOL      0.132590
    120 H54        -0.3800   -5.7420   -0.8090 h1        1 MOL      0.050726
    121 H55        -1.2980   -5.7250    1.3090 h1        1 MOL     -0.016497
    122 H56         0.7840   -6.7960    1.0230 ho        1 MOL      0.379228
    123 H57        -1.3110   -3.4830    1.9640 hc        1 MOL      0.074809
    124 H58        -0.4000   -4.4770    3.2190 hc        1 MOL      0.074809
    125 H59         0.4390   -3.4880    2.0820 hc        1 MOL      0.074809
    126 N11        -2.4550   -4.2720   -0.7390 n         1 MOL     -0.547642
    127 C39        -3.5410   -3.3420   -1.1840 c3        1 MOL      0.060684
    128 C40        -4.8900   -3.4850   -0.5100 c         1 MOL      0.566534
    129 O19        -5.2080   -4.5560    0.0250 o         1 MOL     -0.532368
    130 C41        -3.7010   -3.4070   -2.7010 c3        1 MOL      0.423255
    131 C42        -4.0310   -4.7880   -3.2870 c3        1 MOL     -0.491613
    132 O20        -2.6230   -2.8620   -3.3590 oh        1 MOL     -0.583348
    133 H60        -2.6520   -5.2370   -0.5300 hn        1 MOL      0.266817
    134 H61        -3.1150   -2.3680   -0.9490 h1        1 MOL      0.058678
    135 H62        -4.5240   -2.7240   -2.8980 h1        1 MOL     -0.094746
    136 H63        -2.6720   -1.9010   -3.3900 ho        1 MOL      0.391582
    137 H64        -4.2010   -4.7180   -4.3580 hc        1 MOL      0.136789
    138 H65        -3.1420   -5.4020   -3.1100 hc        1 MOL      0.136789
    139 H66        -4.8750   -5.2150   -2.7460 hc        1 MOL      0.136789
    140 N12        -5.6530   -2.4050   -0.3400 n         1 MOL     -0.452732
    141 C43        -6.9070   -2.3030    0.4100 c3        1 MOL      0.009080
    142 C44        -7.1020   -1.1690    1.4050 c         1 MOL      0.589682
    143 O21        -8.2660   -0.9580    1.8030 o         1 MOL     -0.542633
    144 C45        -8.0680   -2.4240   -0.6110 c3        1 MOL     -0.267627
    145 C46        -8.1870   -1.3370   -1.6990 c3        1 MOL     -0.017498
    146 C47        -9.3820   -1.7640   -2.5980 c3        1 MOL     -0.005454
    147 C48        -9.5090   -0.7610   -3.7810 c3        1 MOL      0.072432
    148 N13       -10.3190   -1.2910   -4.8800 n4        1 MOL     -0.307982
    149 H67        -5.2560   -1.5990   -0.8030 hn        1 MOL      0.242067
    150 H68        -6.8390   -3.1350    1.1130 h1        1 MOL      0.126390
    151 H69        -8.9930   -2.4140   -0.0260 hc        1 MOL      0.098143
    152 H70        -7.9420   -3.4060   -1.0740 hc        1 MOL      0.098143
    153 H71        -7.3050   -1.2210   -2.3260 hc        1 MOL      0.051849
    154 H72        -8.3600   -0.3560   -1.2590 hc        1 MOL      0.051849
    155 H73       -10.2900   -1.8460   -1.9990 hc        1 MOL      0.034670
    156 H74        -9.1410   -2.7280   -3.0390 hc        1 MOL      0.034670
    157 H75        -8.4900   -0.5120   -4.0710 hx        1 MOL      0.064723
    158 H76        -9.8580    0.2380   -3.5330 hx        1 MOL      0.064723
    159 H77        -9.9820   -2.1540   -5.2800 hn        1 MOL      0.260342
    160 H78       -11.2890   -1.3980   -4.6120 hn        1 MOL      0.260342
    161 H79       -10.2490   -0.6210   -5.6430 hn        1 MOL      0.260342
    162 N14        -6.0240   -0.5190    1.9160 n         1 MOL     -0.303305
    163 C49        -6.2170    0.5010    2.9400 c3        1 MOL     -0.625636
    164 C50        -6.8700    1.7610    2.3740 c         1 MOL      0.650921
    165 O22        -6.5240    2.3470    1.3710 o         1 MOL     -0.519335
    166 C51        -4.8960    0.7370    3.6050 c3        1 MOL      0.328715
    167 C52        -4.5030   -0.5300    4.3960 c3        1 MOL      0.327802
    168 C53        -3.0270   -0.4390    4.6920 c         1 MOL      0.605522
    169 O23        -2.2270   -1.3130    4.3370 o         1 MOL     -0.815841
    170 O24        -2.6090    0.5720    5.2800 o         1 MOL     -0.815841
    171 H80        -5.1450   -0.9210    1.6250 hn        1 MOL      0.268911
    172 H81        -6.9150    0.0760    3.6650 h1        1 MOL      0.171356
    173 H82        -4.9690    1.4940    4.3770 hc        1 MOL     -0.019583
    174 H83        -4.1500    1.0740    2.8730 hc        1 MOL     -0.019583
    175 H84        -4.6910   -1.4950    3.9160 hc        1 MOL     -0.084250
    176 H85        -5.0890   -0.6230    5.3120 hc        1 MOL     -0.084250
    177 N15        -7.7830    2.3640    3.1780 n         1 MOL     -0.308151
    178 C54        -8.5030    3.6560    3.0500 c3        1 MOL     -0.176500
    179 H86        -8.6350    4.0980    4.0370 h1        1 MOL      0.099037
    180 H87        -7.9230    4.3350    2.4230 h1        1 MOL      0.099037
    181 H88        -9.4790    3.4850    2.5950 h1        1 MOL      0.099037
    182 H89        -8.0600    1.7820    3.9630 hn        1 MOL      0.246431
    183 Ca1        -0.0080    0.1050    4.4690 Ca        1 MOL      1.768829
    184 O25        -0.8670    2.0240    2.8750 oh        1 MOL     -0.916804
    185 H90        -1.2070    1.8010    2.0090 ho        1 MOL      0.449502
    186 H91        -0.8020    2.9810    2.8650 ho        1 MOL      0.449502
    187 O26         2.2560    0.3980    5.5850 oh        1 MOL     -0.916804
    188 H92         3.0020    0.7310    5.0840 ho        1 MOL      0.449502
    189 H93         2.5600    0.3560    6.4890 ho        1 MOL      0.449502
    190 O27         1.0270   -2.3100    4.7280 oh        1 MOL     -0.916804
    191 H94         1.3360   -2.2080    5.6300 ho        1 MOL      0.449502
    192 H95         0.3760   -3.0030    4.7780 ho        1 MOL      0.449502
@<TRIPOS>BOND
     1    1    2 1   
     2    1    4 1   
     3    1    5 1   
     4    1    6 1   
     5    2    3 2   
     6    2    7 1   
     7    7    8 1   
     8    7   15 1   
     9    8    9 1   
    10    8   11 1   
    11    8   16 1   
    12    9   10 2   
    13    9   19 1   
    14   11   12 1   
    15   11   17 1   
    16   11   18 1   
    17   12   13 1   
    18   12   14 1   
    19   19   20 1   
    20   19   28 1   
    21   20   21 1   
    22   20   23 1   
    23   20   29 1   
    24   21   22 2   
    25   21   41 1   
    26   23   24 1   
    27   23   30 1   
    28   23   31 1   
    29   24   25 1   
    30   24   32 1   
    31   24   33 1   
    32   25   26 1   
    33   25   34 1   
    34   25   35 1   
    35   26   27 1   
    36   26   36 1   
    37   26   37 1   
    38   27   38 1   
    39   27   39 1   
    40   27   40 1   
    41   41   42 1   
    42   41   49 1   
    43   42   43 1   
    44   42   45 1   
    45   42   50 1   
    46   43   44 2   
    47   43   53 1   
    48   45   46 1   
    49   45   51 1   
    50   45   52 1   
    51   46   47 1   
    52   46   48 1   
    53   53   54 1   
    54   53   57 1   
    55   54   55 1   
    56   54   58 1   
    57   54   59 1   
    58   55   56 2   
    59   55   60 1   
    60   60   61 1   
    61   60   68 1   
    62   61   62 1   
    63   61   64 1   
    64   61   69 1   
    65   62   63 2   
    66   62   72 1   
    67   64   65 1   
    68   64   70 1   
    69   64   71 1   
    70   65   66 1   
    71   65   67 1   
    72   72   73 1   
    73   72   76 1   
    74   73   74 1   
    75   73   77 1   
    76   73   78 1   
    77   74   75 2   
    78   74   79 1   
    79   79   80 1   
    80   79   86 1   
    81   80   81 1   
    82   80   83 1   
    83   80   87 1   
    84   81   82 2   
    85   81   93 1   
    86   83   84 1   
    87   83   85 1   
    88   83   88 1   
    89   84   90 1   
    90   84   91 1   
    91   84   92 1   
    92   85   89 1   
    93   93   94 1   
    94   93  101 1   
    95   94   95 1   
    96   94   97 1   
    97   94  102 1   
    98   95   96 2   
    99   95  112 1   
   100   97   98 1   
   101   97   99 1   
   102   97  103 1   
   103   98  100 1   
   104   98  104 1   
   105   98  105 1   
   106   99  106 1   
   107   99  107 1   
   108   99  108 1   
   109  100  109 1   
   110  100  110 1   
   111  100  111 1   
   112  112  113 1   
   113  112  119 1   
   114  113  114 1   
   115  113  116 1   
   116  113  120 1   
   117  114  115 2   
   118  114  126 1   
   119  116  117 1   
   120  116  118 1   
   121  116  121 1   
   122  117  123 1   
   123  117  124 1   
   124  117  125 1   
   125  118  122 1   
   126  126  127 1   
   127  126  133 1   
   128  127  128 1   
   129  127  130 1   
   130  127  134 1   
   131  128  129 2   
   132  128  140 1   
   133  130  131 1   
   134  130  132 1   
   135  130  135 1   
   136  131  137 1   
   137  131  138 1   
   138  131  139 1   
   139  132  136 1   
   140  140  141 1   
   141  140  149 1   
   142  141  142 1   
   143  141  144 1   
   144  141  150 1   
   145  142  143 2   
   146  142  162 1   
   147  144  145 1   
   148  144  151 1   
   149  144  152 1   
   150  145  146 1   
   151  145  153 1   
   152  145  154 1   
   153  146  147 1   
   154  146  155 1   
   155  146  156 1   
   156  147  148 1   
   157  147  157 1   
   158  147  158 1   
   159  148  159 1   
   160  148  160 1   
   161  148  161 1   
   162  162  163 1   
   163  162  171 1   
   164  163  164 1   
   165  163  166 1   
   166  163  172 1   
   167  164  165 2   
   168  164  177 1   
   169  166  167 1   
   170  166  173 1   
   171  166  174 1   
   172  167  168 1   
   173  167  175 1   
   174  167  176 1   
   175  168  169 1   
   176  168  170 1   
   177  177  178 1   
   178  177  182 1   
   179  178  179 1   
   180  178  180 1   
   181  178  181 1   
   182  184  185 1   
   183  184  186 1   
   184  187  188 1   
   185  187  189 1   
   186  190  191 1   
   187  190  192 1   
@<TRIPOS>SUBSTRUCTURE
     1 MOL         1 TEMP              0 ****  ****    0 ROOT
