@<TRIPOS>MOLECULE
MOL
  178   175     1     0     0
SMALL
resp


@<TRIPOS>ATOM
      1 C1         -5.1720   -4.8710   -4.8930 c3        1 MOL     -0.438395
      2 C2         -5.2040   -3.5080   -4.1420 c         1 MOL      0.768128
      3 O1         -4.6670   -2.5360   -4.6750 o         1 MOL     -0.591674
      4 H1         -6.1510   -5.0690   -5.3280 hc        1 MOL      0.118029
      5 H2         -4.4240   -4.8320   -5.6850 hc        1 MOL      0.118029
      6 H3         -4.9180   -5.6670   -4.1910 hc        1 MOL      0.118029
      7 N1         -5.8080   -3.3330   -2.9890 n         1 MOL     -0.516513
      8 C3         -6.9420   -4.1230   -2.4630 c3        1 MOL     -0.202058
      9 C4         -7.0780   -3.9790   -0.9240 c         1 MOL      0.698689
     10 O2         -6.8270   -2.9080   -0.4260 o         1 MOL     -0.549640
     11 C5         -8.2530   -3.7210   -3.1180 c3        1 MOL     -0.134020
     12 C6         -8.4710   -2.2020   -3.3550 c         1 MOL      0.708650
     13 O3         -9.3090   -1.7970   -4.1910 o         1 MOL     -0.690553
     14 O4         -7.9010   -1.3740   -2.6350 o         1 MOL     -0.690553
     15 H4         -5.6570   -2.4550   -2.5340 hn        1 MOL      0.304137
     16 H5         -6.6040   -5.0890   -2.8190 h1        1 MOL      0.078534
     17 H6         -9.1090   -4.0460   -2.5130 hc        1 MOL      0.051025
     18 H7         -8.3400   -4.1050   -4.1270 hc        1 MOL      0.051025
     19 N2         -7.6310   -4.9790   -0.2060 n         1 MOL     -0.517832
     20 C7         -7.8400   -5.1310    1.2240 c3        1 MOL      0.197787
     21 C8         -8.5170   -4.0220    2.1310 c         1 MOL      0.358155
     22 O5         -8.8590   -4.3210    3.2870 o         1 MOL     -0.508149
     23 C9         -6.4570   -5.5620    1.7740 c3        1 MOL     -0.259723
     24 H8         -8.0030   -5.7000   -0.8060 hn        1 MOL      0.285068
     25 H9         -8.4630   -6.0030    1.3960 h1        1 MOL      0.057199
     26 H10        -6.4430   -6.5110    2.3200 hc        1 MOL      0.087708
     27 H11        -5.7130   -5.6960    0.9910 hc        1 MOL      0.087708
     28 H12        -6.1520   -4.7690    2.4690 hc        1 MOL      0.087708
     29 N3         -8.7290   -2.8090    1.6220 n         1 MOL     -0.281694
     30 C10        -8.9980   -1.6300    2.4360 c3        1 MOL      0.076719
     31 C11        -9.3040   -0.4260    1.5800 c         1 MOL      0.437022
     32 O6         -8.9660   -0.4150    0.3950 o         1 MOL     -0.515594
     33 C12        -7.7590   -1.3110    3.3260 c3        1 MOL     -0.084387
     34 C13        -6.3670   -1.1330    2.5560 c         1 MOL      0.632185
     35 O7         -6.3610   -0.5210    1.4810 o         1 MOL     -0.648512
     36 O8         -5.3090   -1.5900    3.0700 o         1 MOL     -0.648512
     37 H13        -8.3600   -2.5650    0.7150 hn        1 MOL      0.169167
     38 H14        -9.8980   -1.7570    3.0410 h1        1 MOL      0.044095
     39 H15        -7.6400   -2.1380    4.0240 hc        1 MOL      0.028264
     40 H16        -7.9530   -0.3990    3.8920 hc        1 MOL      0.028264
     41 N4         -9.9410    0.6360    2.0730 n         1 MOL     -0.334942
     42 C14       -10.1330    1.9190    1.3680 c3        1 MOL     -0.242785
     43 C15        -8.7920    2.7710    1.3770 c         1 MOL      0.501029
     44 O9         -8.9240    3.9720    1.1890 o         1 MOL     -0.588667
     45 H17       -10.4360    0.6720    2.9540 hn        1 MOL      0.279744
     46 H18       -10.9240    2.4570    1.8820 h1        1 MOL      0.140908
     47 H19       -10.3660    1.6530    0.3380 h1        1 MOL      0.140908
     48 N5         -7.6540    2.2740    1.7280 n         1 MOL      0.041640
     49 C16        -6.4500    3.0070    2.1390 c3        1 MOL     -0.216931
     50 C17        -5.4450    2.9860    0.9920 c         1 MOL      0.699879
     51 O10        -5.5520    2.1670    0.1250 o         1 MOL     -0.611301
     52 C18        -5.8630    2.4700    3.3710 c3        1 MOL     -0.080575
     53 C19        -6.7950    2.3930    4.5700 c         1 MOL      0.685367
     54 N6         -6.3750    1.8420    5.6610 n         1 MOL     -0.820338
     55 O11        -7.9210    2.8540    4.4870 o         1 MOL     -0.565701
     56 H20        -7.5430    1.2850    1.8430 hn        1 MOL      0.054472
     57 H21        -6.8180    4.0020    2.3910 h1        1 MOL      0.105189
     58 H22        -5.0880    3.1430    3.7360 hc        1 MOL      0.035055
     59 H23        -5.3600    1.5130    3.2300 hc        1 MOL      0.035055
     60 H24        -5.4170    1.5060    5.6270 hn        1 MOL      0.381557
     61 H25        -6.9420    1.7910    6.4920 hn        1 MOL      0.381557
     62 N7         -4.5370    3.9870    0.9310 n         1 MOL     -0.510269
     63 C20        -3.4760    4.0360   -0.1120 c3        1 MOL     -0.006902
     64 C21        -2.4720    5.2210   -0.0130 c         1 MOL      0.703363
     65 O12        -2.7930    6.2640    0.5380 o         1 MOL     -0.585544
     66 H26        -4.4200    4.6220    1.7070 hn        1 MOL      0.308992
     67 H27        -3.9060    4.0270   -1.1110 h1        1 MOL      0.063282
     68 H28        -2.8970    3.1290    0.0920 h1        1 MOL      0.063282
     69 N8         -1.3030    5.1890   -0.6660 n         1 MOL     -0.641794
     70 C22        -0.5670    4.2370   -1.5060 c3        1 MOL      0.009295
     71 C23         0.6650    3.6850   -0.8190 c         1 MOL      0.566864
     72 O13         1.0950    4.1780    0.2500 o         1 MOL     -0.514581
     73 C24        -0.1260    5.0810   -2.7730 c3        1 MOL      0.553766
     74 C25        -1.2700    5.7210   -3.5310 c3        1 MOL     -0.394761
     75 O14         0.8960    5.9520   -2.4680 oh        1 MOL     -0.622077
     76 H29        -0.8530    6.0920   -0.5400 hn        1 MOL      0.348227
     77 H30        -1.2840    3.5220   -1.9000 h1        1 MOL     -0.014989
     78 H31         0.2890    4.4120   -3.5150 h1        1 MOL     -0.048153
     79 H32         1.7170    5.4590   -2.4510 ho        1 MOL      0.396633
     80 H33        -0.9620    5.8070   -4.5720 hc        1 MOL      0.096998
     81 H34        -2.2020    5.1500   -3.5070 hc        1 MOL      0.096998
     82 H35        -1.5280    6.7300   -3.1930 hc        1 MOL      0.096998
     83 N9          1.2750    2.7370   -1.5860 n         1 MOL     -0.455586
     84 C26         2.4890    2.0070   -1.0720 c3        1 MOL      0.083925
     85 C27         3.5790    1.8120   -2.1750 c         1 MOL      0.376960
     86 O15         3.2410    1.6500   -3.3270 o         1 MOL     -0.527510
     87 C28         2.0560    0.6530   -0.3860 c3        1 MOL      0.228035
     88 C29         1.6450   -0.5070   -1.3690 c3        1 MOL     -0.143680
     89 C30         1.1380    0.7440    0.8290 c3        1 MOL     -0.049647
     90 C31         0.4230   -0.1180   -2.2490 c3        1 MOL     -0.112680
     91 H36         0.8120    2.3970   -2.4180 hn        1 MOL      0.231898
     92 H37         3.0010    2.6220   -0.3250 h1        1 MOL      0.085362
     93 H38         2.9450    0.2570    0.1110 hc        1 MOL     -0.085020
     94 H39         1.5120   -1.4200   -0.7830 hc        1 MOL      0.080531
     95 H40         2.3980   -0.7870   -2.0990 hc        1 MOL      0.080531
     96 H41         0.1740    1.1680    0.5490 hc        1 MOL     -0.001904
     97 H42         0.9700   -0.2660    1.2050 hc        1 MOL     -0.001904
     98 H43         1.5100    1.4170    1.5960 hc        1 MOL     -0.001904
     99 H44         0.6970    0.5540   -3.0610 hc        1 MOL      0.010731
    100 H45         0.0860   -1.1000   -2.5900 hc        1 MOL      0.010731
    101 H46        -0.3700    0.2690   -1.6130 hc        1 MOL      0.010731
    102 N10         4.8900    1.7610   -1.8520 n         1 MOL     -0.312785
    103 C32         5.5160    1.9820   -0.6080 c3        1 MOL      0.102274
    104 C33         6.8430    1.1740   -0.4060 c         1 MOL      0.486761
    105 O16         7.4050    0.6770   -1.4010 o         1 MOL     -0.524068
    106 C34         5.8010    3.5190   -0.4670 c3        1 MOL     -0.100568
    107 C35         6.5840    4.0760   -1.5910 c         1 MOL      0.703936
    108 O17         7.8530    4.0070   -1.5780 o         1 MOL     -0.720299
    109 O18         6.0620    4.6940   -2.5080 o         1 MOL     -0.720299
    110 H47         5.5570    1.4140   -2.5160 hn        1 MOL      0.276277
    111 H48         4.8750    1.6430    0.2180 h1        1 MOL      0.036614
    112 H49         6.4440    3.6610    0.3980 hc        1 MOL     -0.014722
    113 H50         4.8660    4.0220   -0.2080 hc        1 MOL     -0.014722
    114 N11         7.3970    1.1580    0.8000 n         1 MOL     -0.651287
    115 C36         8.7650    0.5500    1.0660 c3        1 MOL      0.651073
    116 C37         8.6610   -0.2140    2.4050 c         1 MOL      0.198744
    117 O19         8.2240    0.3320    3.3750 o         1 MOL     -0.458539
    118 C38         9.9030    1.6130    1.0490 c3        1 MOL      0.088898
    119 C39        11.2720    1.0960    0.6690 ca        1 MOL     -0.009571
    120 C40        12.2190    0.8450    1.6830 ca        1 MOL     -0.089828
    121 C41        11.6900    1.0770   -0.7160 ca        1 MOL     -0.089828
    122 C42        13.6380    0.6030    1.3150 ca        1 MOL     -0.208085
    123 C43        13.0380    0.6910   -1.0410 ca        1 MOL     -0.208085
    124 C44        13.9830    0.4330   -0.0220 ca        1 MOL     -0.033871
    125 H51         6.8830    1.6620    1.5000 hn        1 MOL      0.340457
    126 H52         8.9380   -0.1590    0.2550 h1        1 MOL     -0.099320
    127 H53         9.9460    1.9040    2.0900 hc        1 MOL     -0.043186
    128 H54         9.6580    2.5240    0.5030 hc        1 MOL     -0.043186
    129 H55        11.8530    1.0480    2.6810 ha        1 MOL      0.125439
    130 H56        10.9210    1.2270   -1.4670 ha        1 MOL      0.125439
    131 H57        14.3520    0.5000    2.1190 ha        1 MOL      0.116870
    132 H58        13.3750    0.6120   -2.0630 ha        1 MOL      0.116870
    133 H59        14.9860    0.0930   -0.2050 ha        1 MOL      0.075171
    134 N12         9.1510   -1.4830    2.5420 n         1 MOL     -0.015508
    135 C45        10.0300   -2.1220    1.5520 c3        1 MOL     -0.253510
    136 C46         9.3560   -2.6800    0.3810 c         1 MOL      0.650488
    137 O20         9.9470   -2.8980   -0.6680 o         1 MOL     -0.592800
    138 C47        10.7440   -3.2100    2.3550 c3        1 MOL      0.056392
    139 C48         9.6860   -3.6750    3.3630 c3        1 MOL      0.120432
    140 C49         9.1360   -2.2720    3.7210 c3        1 MOL     -0.359613
    141 H60        10.6900   -1.3530    1.1390 h1        1 MOL      0.081184
    142 H61        11.0590   -4.0040    1.6860 hc        1 MOL     -0.013650
    143 H62        11.5930   -2.8160    2.9230 hc        1 MOL     -0.013650
    144 H63         9.0400   -4.3820    2.8430 hc        1 MOL     -0.000858
    145 H64        10.1090   -4.1750    4.2440 hc        1 MOL     -0.000858
    146 H65         8.1210   -2.4350    4.0810 h1        1 MOL      0.134015
    147 H66         9.6310   -1.7480    4.5450 h1        1 MOL      0.134015
    148 N13         8.0670   -2.9510    0.5610 n         1 MOL     -0.185515
    149 C50         7.1570   -3.3780   -0.5020 c3        1 MOL      0.067232
    150 C51         7.4970   -4.7940   -0.8210 c         1 MOL      0.363919
    151 O21         7.3610   -5.7300   -0.0220 o         1 MOL     -0.563906
    152 C52         5.6830   -3.3400   -0.0460 c3        1 MOL      0.028438
    153 C53         5.0230   -1.9070    0.2280 c3        1 MOL      0.037572
    154 C54         5.3370   -1.3270    1.5860 c         1 MOL      0.731471
    155 O22         6.0180   -1.9050    2.4000 o         1 MOL     -0.670658
    156 O23         4.9740   -0.1780    1.8800 o         1 MOL     -0.670658
    157 H67         7.5980   -2.6280    1.3960 hn        1 MOL      0.159639
    158 H68         7.2130   -2.6990   -1.3500 h1        1 MOL      0.059263
    159 H69         5.6870   -3.9530    0.8540 hc        1 MOL     -0.016140
    160 H70         5.1170   -3.8150   -0.8370 hc        1 MOL     -0.016140
    161 H71         3.9470   -2.0910    0.2340 hc        1 MOL     -0.073705
    162 H72         5.3780   -1.2190   -0.5350 hc        1 MOL     -0.073705
    163 N14         7.9200   -5.2180   -2.0020 n         1 MOL     -0.303639
    164 C55         8.5620   -4.4810   -3.1190 c3        1 MOL     -0.060559
    165 H73         9.5400   -4.9150   -3.3250 h1        1 MOL      0.052768
    166 H74         7.9380   -4.5550   -4.0100 h1        1 MOL      0.052768
    167 H75         8.6800   -3.4330   -2.8440 h1        1 MOL      0.052768
    168 H76         7.8840   -6.2270   -2.0600 hn        1 MOL      0.249018
    169 Ca1        -6.5470   -0.1890   -0.9660 Ca        1 MOL      1.633039
    170 O24        -4.0920   -1.1100   -0.9820 oh        1 MOL     -0.856350
    171 H77        -3.7960   -0.7460   -0.1480 ho        1 MOL      0.427877
    172 H78        -3.3820   -1.7010   -1.2350 ho        1 MOL      0.427877
    173 O25        -8.1430    1.6430   -1.8920 oh        1 MOL     -0.856350
    174 H79        -8.1180    2.4400   -2.4150 ho        1 MOL      0.427877
    175 H80        -8.8400    1.1190   -2.2890 ho        1 MOL      0.427877
    176 O26        -5.1350    0.7850   -3.0020 oh        1 MOL     -0.856350
    177 H81        -4.1840    0.8800   -2.9190 ho        1 MOL      0.427877
    178 H82        -5.3900    1.4350   -3.6580 ho        1 MOL      0.427877
@<TRIPOS>BOND
     1    1    2 1   
     2    1    4 1   
     3    1    5 1   
     4    1    6 1   
     5    2    3 2   
     6    2    7 1   
     7    7    8 1   
     8    7   15 1   
     9    8    9 1   
    10    8   11 1   
    11    8   16 1   
    12    9   10 2   
    13    9   19 1   
    14   11   12 1   
    15   11   17 1   
    16   11   18 1   
    17   12   13 1   
    18   12   14 1   
    19   19   20 1   
    20   19   24 1   
    21   20   21 1   
    22   20   23 1   
    23   20   25 1   
    24   21   22 2   
    25   21   29 1   
    26   23   26 1   
    27   23   27 1   
    28   23   28 1   
    29   29   30 1   
    30   29   37 1   
    31   30   31 1   
    32   30   33 1   
    33   30   38 1   
    34   31   32 2   
    35   31   41 1   
    36   33   34 1   
    37   33   39 1   
    38   33   40 1   
    39   34   35 1   
    40   34   36 1   
    41   41   42 1   
    42   41   45 1   
    43   42   43 1   
    44   42   46 1   
    45   42   47 1   
    46   43   44 2   
    47   43   48 1   
    48   48   49 1   
    49   48   56 1   
    50   49   50 1   
    51   49   52 1   
    52   49   57 1   
    53   50   51 2   
    54   50   62 1   
    55   52   53 1   
    56   52   58 1   
    57   52   59 1   
    58   53   54 1   
    59   53   55 2   
    60   54   60 1   
    61   54   61 1   
    62   62   63 1   
    63   62   66 1   
    64   63   64 1   
    65   63   67 1   
    66   63   68 1   
    67   64   65 2   
    68   64   69 1   
    69   69   70 1   
    70   69   76 1   
    71   70   71 1   
    72   70   73 1   
    73   70   77 1   
    74   71   72 2   
    75   71   83 1   
    76   73   74 1   
    77   73   75 1   
    78   73   78 1   
    79   74   80 1   
    80   74   81 1   
    81   74   82 1   
    82   75   79 1   
    83   83   84 1   
    84   83   91 1   
    85   84   85 1   
    86   84   87 1   
    87   84   92 1   
    88   85   86 2   
    89   85  102 1   
    90   87   88 1   
    91   87   89 1   
    92   87   93 1   
    93   88   90 1   
    94   88   94 1   
    95   88   95 1   
    96   89   96 1   
    97   89   97 1   
    98   89   98 1   
    99   90   99 1   
   100   90  100 1   
   101   90  101 1   
   102  102  103 1   
   103  102  110 1   
   104  103  104 1   
   105  103  106 1   
   106  103  111 1   
   107  104  105 2   
   108  104  114 1   
   109  106  107 1   
   110  106  112 1   
   111  106  113 1   
   112  107  108 1   
   113  107  109 1   
   114  114  115 1   
   115  114  125 1   
   116  115  116 1   
   117  115  118 1   
   118  115  126 1   
   119  116  117 2   
   120  116  134 1   
   121  118  119 1   
   122  118  127 1   
   123  118  128 1   
   124  119  120 ar  
   125  119  121 ar  
   126  120  122 ar  
   127  120  129 1   
   128  121  123 ar  
   129  121  130 1   
   130  122  124 ar  
   131  122  131 1   
   132  123  124 ar  
   133  123  132 1   
   134  124  133 1   
   135  134  135 1   
   136  134  140 1   
   137  135  136 1   
   138  135  138 1   
   139  135  141 1   
   140  136  137 2   
   141  136  148 1   
   142  138  139 1   
   143  138  142 1   
   144  138  143 1   
   145  139  140 1   
   146  139  144 1   
   147  139  145 1   
   148  140  146 1   
   149  140  147 1   
   150  148  149 1   
   151  148  157 1   
   152  149  150 1   
   153  149  152 1   
   154  149  158 1   
   155  150  151 2   
   156  150  163 1   
   157  152  153 1   
   158  152  159 1   
   159  152  160 1   
   160  153  154 1   
   161  153  161 1   
   162  153  162 1   
   163  154  155 1   
   164  154  156 1   
   165  163  164 1   
   166  163  168 1   
   167  164  165 1   
   168  164  166 1   
   169  164  167 1   
   170  170  171 1   
   171  170  172 1   
   172  173  174 1   
   173  173  175 1   
   174  176  177 1   
   175  176  178 1   
@<TRIPOS>SUBSTRUCTURE
     1 MOL         1 TEMP              0 ****  ****    0 ROOT
