@<TRIPOS>MOLECULE
MOL
  179   176     1     0     0
SMALL
resp


@<TRIPOS>ATOM
      1 C1          4.2170    0.4540    6.0870 c3        1 MOL     -0.252477
      2 C2          3.7870    0.5040    4.6080 c         1 MOL      0.793342
      3 O1          4.6650    0.3500    3.7720 o         1 MOL     -0.549308
      4 H1          3.6590   -0.3290    6.6000 hc        1 MOL      0.059885
      5 H2          5.2840    0.2390    6.1480 hc        1 MOL      0.059885
      6 H3          4.0110    1.4140    6.5590 hc        1 MOL      0.059885
      7 N1          2.4870    0.8380    4.3460 n         1 MOL     -0.698010
      8 C3          2.0530    1.1690    2.9830 c3        1 MOL     -0.207198
      9 C4          2.6380    2.5180    2.4250 c         1 MOL      0.916013
     10 O2          2.7620    3.5070    3.1190 o         1 MOL     -0.584958
     11 C5          0.5210    1.3570    3.0340 c3        1 MOL      0.002355
     12 C6         -0.1960    1.5640    1.6950 c         1 MOL      0.681830
     13 O3         -1.4110    1.7250    1.5840 o         1 MOL     -0.745935
     14 O4          0.4510    1.3900    0.6350 o         1 MOL     -0.745935
     15 H4          1.8630    0.8760    5.1400 hn        1 MOL      0.364745
     16 H5          2.3790    0.3490    2.3470 h1        1 MOL      0.055997
     17 H6          0.2750    2.2640    3.5870 hc        1 MOL      0.015288
     18 H7          0.0750    0.5110    3.5720 hc        1 MOL      0.015288
     19 N2          2.9420    2.5630    1.1070 n         1 MOL     -0.732973
     20 C7          3.5750    3.7510    0.4450 c3        1 MOL      0.124125
     21 C8          2.5010    4.6650   -0.2430 c         1 MOL      0.534291
     22 O5          2.7250    5.8500   -0.2100 o         1 MOL     -0.563686
     23 C9          4.6740    3.2700   -0.4550 c3        1 MOL     -0.103480
     24 C10         5.7060    4.4100   -0.8410 c3        1 MOL     -0.311594
     25 C11         6.5940    4.0100   -1.9640 c3        1 MOL     -0.261048
     26 C12         7.3200    5.1970   -2.6960 c3        1 MOL     -0.221515
     27 N3          6.4420    6.1810   -3.3940 n4        1 MOL     -0.155291
     28 H8          2.6720    1.8020    0.5050 hn        1 MOL      0.365660
     29 H9          4.0350    4.3720    1.2050 h1        1 MOL      0.072200
     30 H10         4.2260    2.8080   -1.3320 hc        1 MOL      0.083406
     31 H11         5.3190    2.5320    0.0240 hc        1 MOL      0.083406
     32 H12         6.3660    4.5730    0.0090 hc        1 MOL      0.181978
     33 H13         5.1780    5.2790   -1.2410 hc        1 MOL      0.181978
     34 H14         6.1190    3.5630   -2.8350 hc        1 MOL      0.151507
     35 H15         7.3750    3.3920   -1.5210 hc        1 MOL      0.151507
     36 H16         8.0340    4.8690   -3.4540 hx        1 MOL      0.163813
     37 H17         7.7760    5.6370   -1.8120 hx        1 MOL      0.163813
     38 H18         6.0530    5.6620   -4.1720 hn        1 MOL      0.243497
     39 H19         5.7210    6.6680   -2.8980 hn        1 MOL      0.243497
     40 H20         7.1070    6.8170   -3.8050 hn        1 MOL      0.243497
     41 N4          1.3580    4.2060   -0.7650 n         1 MOL     -0.415881
     42 C13         0.4090    5.1250   -1.4470 c3        1 MOL      0.053198
     43 C14        -0.6710    5.7200   -0.4580 c         1 MOL      0.439199
     44 O6         -1.1090    6.8430   -0.4520 o         1 MOL     -0.546118
     45 C15        -0.3070    4.4250   -2.6810 c3        1 MOL     -0.331828
     46 C16        -0.9190    3.0510   -2.2550 c         1 MOL      0.734648
     47 O7         -1.8420    3.0490   -1.4300 o         1 MOL     -0.754645
     48 O8         -0.4750    1.9520   -2.6070 o         1 MOL     -0.754645
     49 H21         1.1960    3.2090   -0.7420 hn        1 MOL      0.274675
     50 H22         0.8200    6.0190   -1.9290 h1        1 MOL      0.092801
     51 H23         0.4140    4.2780   -3.4850 hc        1 MOL      0.103500
     52 H24        -1.0940    5.0560   -3.0900 hc        1 MOL      0.103500
     53 N5         -0.9530    4.9690    0.5950 n         1 MOL      0.033642
     54 C17        -1.7520    5.3260    1.7440 c3        1 MOL     -0.242811
     55 C18        -3.2160    4.9670    1.6490 c         1 MOL      0.636960
     56 O9         -4.0100    5.4720    2.4620 o         1 MOL     -0.595877
     57 H25        -0.4710    4.0990    0.7550 hn        1 MOL      0.102335
     58 H26        -1.6420    6.3820    2.0000 h1        1 MOL      0.111428
     59 H27        -1.3810    4.8070    2.6300 h1        1 MOL      0.111428
     60 N6         -3.6160    4.1840    0.6590 n         1 MOL     -0.369396
     61 C19        -5.0640    3.8840    0.2400 c3        1 MOL      0.184746
     62 C20        -5.2360    2.4110   -0.1550 c         1 MOL      0.266225
     63 O10        -4.3150    1.7000   -0.4370 o         1 MOL     -0.323528
     64 C21        -5.5210    4.9380   -0.8420 c3        1 MOL     -0.329185
     65 C22        -5.5770    4.3910   -2.2500 c         1 MOL      0.623259
     66 N7         -4.4640    3.8460   -2.6900 n         1 MOL     -0.706809
     67 O11        -6.6170    4.1120   -2.8120 o         1 MOL     -0.582614
     68 H28        -2.9110    3.7630    0.0670 hn        1 MOL      0.143101
     69 H29        -5.7050    4.0680    1.1000 h1        1 MOL      0.054146
     70 H30        -4.8110    5.7700   -0.7910 hc        1 MOL      0.114753
     71 H31        -6.5100    5.3040   -0.5430 hc        1 MOL      0.114753
     72 H32        -3.6970    3.7240   -2.0340 hn        1 MOL      0.340227
     73 H33        -4.4440    3.1950   -3.4680 hn        1 MOL      0.340227
     74 N8         -6.5170    1.9970   -0.0500 n         1 MOL     -0.193353
     75 C23        -7.1020    0.7030   -0.3470 c3        1 MOL     -0.306637
     76 C24        -6.3720   -0.4470    0.3390 c         1 MOL      0.609726
     77 O12        -6.3120   -0.3840    1.5770 o         1 MOL     -0.510600
     78 H34        -7.0980    2.7240    0.3360 hn        1 MOL      0.262748
     79 H35        -7.1440    0.5000   -1.4130 h1        1 MOL      0.133529
     80 H36        -8.1220    0.7180    0.0450 h1        1 MOL      0.133529
     81 N9         -5.8860   -1.4110   -0.4280 n         1 MOL     -0.448781
     82 C25        -5.1720   -2.5460    0.1610 c3        1 MOL     -0.037377
     83 C26        -3.8460   -2.1350    0.9270 c         1 MOL      0.443538
     84 O13        -3.3900   -1.0110    0.7980 o         1 MOL     -0.507272
     85 C27        -4.7860   -3.5480   -0.9140 c3        1 MOL     -0.074613
     86 C28        -6.0140   -4.1080   -1.6270 ca        1 MOL      0.047781
     87 C29        -6.4120   -3.7550   -2.9520 ca        1 MOL     -0.139277
     88 C30        -6.7290   -5.1710   -0.9880 ca        1 MOL     -0.139277
     89 C31        -7.5610   -4.3370   -3.5290 ca        1 MOL     -0.296027
     90 C32        -7.9010   -5.7000   -1.5690 ca        1 MOL     -0.296027
     91 C33        -8.3190   -5.2780   -2.8490 ca        1 MOL      0.407897
     92 O14        -9.3810   -5.8930   -3.4200 oh        1 MOL     -0.518467
     93 H37        -6.0000   -1.3540   -1.4360 hn        1 MOL      0.268572
     94 H38        -5.9000   -3.0810    0.7730 h1        1 MOL      0.105235
     95 H39        -4.2410   -4.3880   -0.4910 hc        1 MOL      0.027326
     96 H40        -4.1690   -3.1150   -1.7050 hc        1 MOL      0.027326
     97 H41        -5.9120   -3.0240   -3.5910 ha        1 MOL      0.128334
     98 H42        -6.3910   -5.5490   -0.0320 ha        1 MOL      0.128334
     99 H43        -7.8210   -4.1050   -4.5550 ha        1 MOL      0.164186
    100 H44        -8.4390   -6.4920   -1.0760 ha        1 MOL      0.164186
    101 H45        -9.9390   -6.4570   -2.8720 ho        1 MOL      0.392472
    102 N10        -3.3460   -2.9480    1.8060 n         1 MOL     -0.423973
    103 C34        -2.3030   -2.6760    2.8300 c3        1 MOL      0.263160
    104 C35        -0.9860   -2.2790    2.2030 c         1 MOL      0.342420
    105 O15        -0.8660   -1.3420    1.4430 o         1 MOL     -0.484803
    106 C36        -2.7760   -1.6920    3.9280 c3        1 MOL      0.195504
    107 C37        -1.8260   -1.5500    5.2020 c3        1 MOL     -0.348473
    108 C38        -4.2390   -1.8740    4.4500 c3        1 MOL     -0.061147
    109 C39        -1.4840   -2.7910    6.0720 c3        1 MOL     -0.266530
    110 H46        -3.8970   -3.7910    1.8950 hn        1 MOL      0.265203
    111 H47        -2.1530   -3.5880    3.4080 h1        1 MOL     -0.036001
    112 H48        -2.6970   -0.7150    3.4450 hc        1 MOL      0.030959
    113 H49        -2.2390   -0.7830    5.8520 hc        1 MOL      0.137826
    114 H50        -0.8780   -1.1470    4.8560 hc        1 MOL      0.137826
    115 H51        -4.5690   -0.9470    4.9090 hc        1 MOL      0.021118
    116 H52        -4.8740   -2.1260    3.5950 hc        1 MOL      0.021118
    117 H53        -4.4330   -2.7490    5.0650 hc        1 MOL      0.021118
    118 H54        -0.7820   -2.5240    6.8540 hc        1 MOL      0.084361
    119 H55        -2.3580   -3.1810    6.5940 hc        1 MOL      0.084361
    120 H56        -0.8730   -3.5470    5.5690 hc        1 MOL      0.084361
    121 N11         0.0550   -2.9410    2.6580 n         1 MOL     -0.649080
    122 C40         1.3720   -2.3690    2.6580 c3        1 MOL      0.107134
    123 C41         2.0470   -2.3490    1.2390 c         1 MOL      0.469661
    124 O16         3.2580   -2.0150    1.1560 o         1 MOL     -0.524081
    125 C42         2.3340   -3.1820    3.5330 c3        1 MOL     -0.017861
    126 O17         1.7060   -3.4580    4.8350 oh        1 MOL     -0.567306
    127 H57        -0.1820   -3.5720    3.4110 hn        1 MOL      0.344544
    128 H58         1.3100   -1.4000    3.1530 h1        1 MOL      0.235622
    129 H59         3.2590   -2.6010    3.6140 h1        1 MOL      0.114186
    130 H60         2.5960   -4.1110    3.0330 h1        1 MOL      0.114186
    131 H61         1.1670   -4.2480    4.7050 ho        1 MOL      0.375169
    132 N12         1.3420   -2.7470    0.2170 n         1 MOL     -0.431483
    133 C43         1.8530   -2.7850   -1.1800 c3        1 MOL      0.004938
    134 C44         1.6100   -1.4460   -1.8990 c         1 MOL      0.704315
    135 O18         0.5860   -0.7910   -1.8020 o         1 MOL     -0.611398
    136 C45         1.2350   -3.9780   -1.9660 c3        1 MOL     -0.331580
    137 H62         0.3530   -2.8930    0.3290 hn        1 MOL      0.329500
    138 H63         2.9140   -3.0030   -1.1190 h1        1 MOL      0.208508
    139 H64         0.2230   -3.8050   -2.3040 hc        1 MOL      0.096132
    140 H65         1.9490   -4.2730   -2.7370 hc        1 MOL      0.096132
    141 H66         1.2520   -4.8600   -1.3220 hc        1 MOL      0.096132
    142 N13         2.6230   -0.9760   -2.6280 n         1 MOL     -0.673001
    143 C46         4.0300   -1.4180   -2.7820 c3        1 MOL      0.104305
    144 C47         4.1560   -2.8460   -3.3890 c         1 MOL      0.691983
    145 O19         3.6100   -3.1620   -4.4500 o         1 MOL     -0.608454
    146 C48         4.6920   -0.5050   -3.7450 c3        1 MOL     -0.131396
    147 H67         2.5390   -0.0420   -3.0090 hn        1 MOL      0.380528
    148 H68         4.4570   -1.4650   -1.7870 h1        1 MOL      0.126861
    149 H69         4.8740    0.3930   -3.1540 hc        1 MOL      0.043722
    150 H70         5.6370   -0.8780   -4.1350 hc        1 MOL      0.043722
    151 H71         4.0600   -0.1980   -4.5800 hc        1 MOL      0.043722
    152 N14         4.8070   -3.7850   -2.7790 n         1 MOL     -0.606735
    153 C49         5.4960   -3.6690   -1.5030 c3        1 MOL     -0.197595
    154 C50         5.7710   -5.0370   -0.7070 c         1 MOL      0.567199
    155 O20         5.6900   -5.0970    0.5010 o         1 MOL     -0.505940
    156 C51         6.8720   -3.0870   -1.7510 c3        1 MOL      0.163937
    157 C52         7.6180   -2.5900   -0.4980 c3        1 MOL     -0.347877
    158 C53         8.8260   -1.7550   -0.8470 c         1 MOL      0.691408
    159 O21         9.3170   -0.9310    0.0080 o         1 MOL     -0.671660
    160 O22         9.4210   -1.9030   -1.9480 o         1 MOL     -0.671660
    161 H72         5.1360   -4.5700   -3.3290 hn        1 MOL      0.330525
    162 H73         4.9420   -3.1090   -0.7550 h1        1 MOL      0.082580
    163 H74         6.7810   -2.2510   -2.4390 hc        1 MOL     -0.006873
    164 H75         7.4360   -3.8470   -2.2910 hc        1 MOL     -0.006873
    165 H76         7.9200   -3.4540    0.0950 hc        1 MOL      0.101457
    166 H77         6.8750   -2.0660    0.0880 hc        1 MOL      0.101457
    167 N15         5.9290   -6.1860   -1.4140 n         1 MOL     -0.331467
    168 C54         6.0800   -7.5450   -0.8570 c3        1 MOL     -0.208453
    169 H78         5.3480   -7.6940   -0.0630 h1        1 MOL      0.106426
    170 H79         5.9160   -8.2810   -1.6440 h1        1 MOL      0.106426
    171 H80         7.0850   -7.6630   -0.4510 h1        1 MOL      0.106426
    172 H81         5.9970   -6.1300   -2.4230 hn        1 MOL      0.272167
    173 Ca1        -1.6640    0.4530   -0.7490 Ca        1 MOL      1.787115
    174 O23        -1.7480   -2.2100   -1.2710 oh        1 MOL     -0.818096
    175 H82        -1.5910   -2.2260   -2.2180 ho        1 MOL      0.409681
    176 H83        -1.6470   -3.1190   -0.9960 ho        1 MOL      0.409681
    177 O24        -3.3390    0.1940   -2.7720 oh        1 MOL     -0.818096
    178 H84        -3.0440   -0.1890   -3.6030 ho        1 MOL      0.409681
    179 H85        -4.2600   -0.0210   -2.7130 ho        1 MOL      0.409681
@<TRIPOS>BOND
     1    1    2 1   
     2    1    4 1   
     3    1    5 1   
     4    1    6 1   
     5    2    3 2   
     6    2    7 1   
     7    7    8 1   
     8    7   15 1   
     9    8    9 1   
    10    8   11 1   
    11    8   16 1   
    12    9   10 2   
    13    9   19 1   
    14   11   12 1   
    15   11   17 1   
    16   11   18 1   
    17   12   13 1   
    18   12   14 1   
    19   19   20 1   
    20   19   28 1   
    21   20   21 1   
    22   20   23 1   
    23   20   29 1   
    24   21   22 2   
    25   21   41 1   
    26   23   24 1   
    27   23   30 1   
    28   23   31 1   
    29   24   25 1   
    30   24   32 1   
    31   24   33 1   
    32   25   26 1   
    33   25   34 1   
    34   25   35 1   
    35   26   27 1   
    36   26   36 1   
    37   26   37 1   
    38   27   38 1   
    39   27   39 1   
    40   27   40 1   
    41   41   42 1   
    42   41   49 1   
    43   42   43 1   
    44   42   45 1   
    45   42   50 1   
    46   43   44 2   
    47   43   53 1   
    48   45   46 1   
    49   45   51 1   
    50   45   52 1   
    51   46   47 1   
    52   46   48 1   
    53   53   54 1   
    54   53   57 1   
    55   54   55 1   
    56   54   58 1   
    57   54   59 1   
    58   55   56 2   
    59   55   60 1   
    60   60   61 1   
    61   60   68 1   
    62   61   62 1   
    63   61   64 1   
    64   61   69 1   
    65   62   63 2   
    66   62   74 1   
    67   64   65 1   
    68   64   70 1   
    69   64   71 1   
    70   65   66 1   
    71   65   67 2   
    72   66   72 1   
    73   66   73 1   
    74   74   75 1   
    75   74   78 1   
    76   75   76 1   
    77   75   79 1   
    78   75   80 1   
    79   76   77 2   
    80   76   81 1   
    81   81   82 1   
    82   81   93 1   
    83   82   83 1   
    84   82   85 1   
    85   82   94 1   
    86   83   84 2   
    87   83  102 1   
    88   85   86 1   
    89   85   95 1   
    90   85   96 1   
    91   86   87 ar  
    92   86   88 ar  
    93   87   89 ar  
    94   87   97 1   
    95   88   90 ar  
    96   88   98 1   
    97   89   91 ar  
    98   89   99 1   
    99   90   91 ar  
   100   90  100 1   
   101   91   92 1   
   102   92  101 1   
   103  102  103 1   
   104  102  110 1   
   105  103  104 1   
   106  103  106 1   
   107  103  111 1   
   108  104  105 2   
   109  104  121 1   
   110  106  107 1   
   111  106  108 1   
   112  106  112 1   
   113  107  109 1   
   114  107  113 1   
   115  107  114 1   
   116  108  115 1   
   117  108  116 1   
   118  108  117 1   
   119  109  118 1   
   120  109  119 1   
   121  109  120 1   
   122  121  122 1   
   123  121  127 1   
   124  122  123 1   
   125  122  125 1   
   126  122  128 1   
   127  123  124 2   
   128  123  132 1   
   129  125  126 1   
   130  125  129 1   
   131  125  130 1   
   132  126  131 1   
   133  132  133 1   
   134  132  137 1   
   135  133  134 1   
   136  133  136 1   
   137  133  138 1   
   138  134  135 2   
   139  134  142 1   
   140  136  139 1   
   141  136  140 1   
   142  136  141 1   
   143  142  143 1   
   144  142  147 1   
   145  143  144 1   
   146  143  146 1   
   147  143  148 1   
   148  144  145 2   
   149  144  152 1   
   150  146  149 1   
   151  146  150 1   
   152  146  151 1   
   153  152  153 1   
   154  152  161 1   
   155  153  154 1   
   156  153  156 1   
   157  153  162 1   
   158  154  155 2   
   159  154  167 1   
   160  156  157 1   
   161  156  163 1   
   162  156  164 1   
   163  157  158 1   
   164  157  165 1   
   165  157  166 1   
   166  158  159 1   
   167  158  160 1   
   168  167  168 1   
   169  167  172 1   
   170  168  169 1   
   171  168  170 1   
   172  168  171 1   
   173  174  175 1   
   174  174  176 1   
   175  177  178 1   
   176  177  179 1   
@<TRIPOS>SUBSTRUCTURE
     1 MOL         1 TEMP              0 ****  ****    0 ROOT
