@<TRIPOS>MOLECULE
MOL
  192   187     1     0     0
SMALL
resp


@<TRIPOS>ATOM
      1 C1        -11.5100    4.5640    3.2200 c3        1 MOL     -0.368646
      2 C2        -11.0550    3.5960    2.0950 c         1 MOL      0.580937
      3 O1        -11.7230    2.5980    1.9100 o         1 MOL     -0.580983
      4 H1        -12.1390    5.3460    2.7930 hc        1 MOL      0.099155
      5 H2        -12.0780    4.0110    3.9690 hc        1 MOL      0.099155
      6 H3        -10.6360    5.0170    3.6870 hc        1 MOL      0.099155
      7 N1        -10.0750    3.9940    1.2560 n         1 MOL     -0.053358
      8 C3         -9.8490    3.2480   -0.0110 c3        1 MOL     -0.489523
      9 C4         -8.7830    2.1640    0.2210 c         1 MOL      0.694626
     10 O2         -7.7710    2.4230    0.8730 o         1 MOL     -0.678662
     11 C5         -9.5220    4.2260   -1.1560 c3        1 MOL     -0.001034
     12 C6         -8.5410    5.4490   -0.8360 c         1 MOL      0.698080
     13 O3         -8.5490    6.3600   -1.6380 o         1 MOL     -0.669641
     14 O4         -7.9100    5.4350    0.2630 o         1 MOL     -0.669641
     15 H4         -9.4110    4.7140    1.5030 hn        1 MOL      0.048739
     16 H5        -10.7670    2.7060   -0.2450 h1        1 MOL      0.182781
     17 H6        -10.5220    4.5530   -1.4240 hc        1 MOL      0.047577
     18 H7         -9.0510    3.7410   -2.0150 hc        1 MOL      0.047577
     19 N2         -9.0340    0.9850   -0.3990 n         1 MOL     -0.509466
     20 C7         -8.2540   -0.2250   -0.1080 c3        1 MOL      0.047324
     21 C8         -6.8190   -0.1710   -0.6610 c         1 MOL      0.422825
     22 O5         -6.0170   -1.0420   -0.3520 o         1 MOL     -0.487023
     23 C9         -9.0490   -1.3570   -0.7480 c3        1 MOL      0.040226
     24 C10        -8.6850   -2.8230   -0.5110 c3        1 MOL      0.024725
     25 C11        -8.9950   -3.4870    0.8420 c3        1 MOL     -0.142966
     26 C12        -8.5770   -4.9370    0.7220 c3        1 MOL      0.052575
     27 N3         -9.6690   -5.9360    0.4800 n4        1 MOL     -0.365859
     28 H8         -9.6810    1.0170   -1.1700 hn        1 MOL      0.281106
     29 H9         -8.2210   -0.5330    0.9440 h1        1 MOL      0.097740
     30 H10        -8.9340   -1.2990   -1.8310 hc        1 MOL      0.002884
     31 H11       -10.1080   -1.3460   -0.5180 hc        1 MOL      0.002884
     32 H12        -7.6120   -2.9200   -0.6890 hc        1 MOL      0.025655
     33 H13        -9.2120   -3.3400   -1.3160 hc        1 MOL      0.025655
     34 H14       -10.0210   -3.4500    1.2200 hc        1 MOL      0.063515
     35 H15        -8.3430   -2.9200    1.5160 hc        1 MOL      0.063515
     36 H16        -8.0880   -5.1330    1.6700 hx        1 MOL      0.093119
     37 H17        -7.8730   -5.0510   -0.1050 hx        1 MOL      0.093119
     38 H18       -10.2980   -5.6060   -0.2320 hn        1 MOL      0.319486
     39 H19        -9.2640   -6.8450    0.2990 hn        1 MOL      0.319486
     40 H20       -10.3070   -6.0110    1.2660 hn        1 MOL      0.319486
     41 N4         -6.5720    0.8640   -1.5330 n         1 MOL     -0.365262
     42 C13        -5.2990    1.0410   -2.2460 c3        1 MOL     -0.171190
     43 C14        -4.1490    1.2530   -1.2620 c         1 MOL      0.524962
     44 O6         -4.2570    2.2100   -0.4930 o         1 MOL     -0.530527
     45 C15        -5.3590    2.1660   -3.3330 c3        1 MOL     -0.233866
     46 C16        -5.8380    3.5210   -2.8590 c         1 MOL      0.533012
     47 O7         -6.1330    3.7220   -1.6450 o         1 MOL     -0.597058
     48 O8         -5.8620    4.3890   -3.7810 o         1 MOL     -0.597058
     49 H21        -7.3390    1.5090   -1.6830 hn        1 MOL      0.330259
     50 H22        -5.2790    0.0670   -2.7490 h1        1 MOL      0.159318
     51 H23        -6.0840    1.8640   -4.1010 hc        1 MOL      0.109094
     52 H24        -4.4130    2.2730   -3.8500 hc        1 MOL      0.109094
     53 N5         -3.0820    0.4920   -1.3070 n         1 MOL     -0.304213
     54 C17        -2.7660   -0.5930   -2.2620 c3        1 MOL     -0.214333
     55 C18        -3.1740   -2.0530   -1.9050 c         1 MOL      0.512486
     56 O9         -3.0190   -2.4800   -0.7370 o         1 MOL     -0.574818
     57 H25        -2.3730    0.7250   -0.6150 hn        1 MOL      0.310174
     58 H26        -1.6790   -0.5600   -2.3520 h1        1 MOL      0.114796
     59 H27        -3.1730   -0.4150   -3.2590 h1        1 MOL      0.114796
     60 N6         -3.6770   -2.7390   -2.8640 n         1 MOL     -0.178804
     61 C19        -4.2490   -4.0690   -2.6710 c3        1 MOL     -0.129166
     62 C20        -3.2230   -5.0500   -2.1060 c         1 MOL      0.480796
     63 O10        -3.4810   -5.8730   -1.2570 o         1 MOL     -0.531251
     64 C21        -4.9040   -4.5490   -3.9750 c3        1 MOL     -0.129831
     65 C22        -4.0020   -4.3370   -5.1580 c         1 MOL      0.749532
     66 O11        -4.0790   -3.2550   -5.7400 o         1 MOL     -0.716401
     67 O12        -3.2750   -5.2780   -5.4550 o         1 MOL     -0.716401
     68 H28        -3.8820   -2.2570   -3.7240 hn        1 MOL      0.168224
     69 H29        -5.0120   -4.0500   -1.8960 h1        1 MOL      0.073752
     70 H30        -5.9100   -4.1960   -4.1770 hc        1 MOL      0.024822
     71 H31        -5.0370   -5.6360   -3.9110 hc        1 MOL      0.024822
     72 N7         -1.9460   -4.8280   -2.4420 n         1 MOL     -0.206794
     73 C23        -0.6910   -5.3900   -1.7800 c3        1 MOL     -0.147546
     74 C24        -0.4910   -5.2140   -0.2700 c         1 MOL      0.608643
     75 O13         0.1780   -6.0520    0.3510 o         1 MOL     -0.580412
     76 H32        -1.6720   -4.1350   -3.1260 hn        1 MOL      0.209968
     77 H33         0.1740   -4.9370   -2.2710 h1        1 MOL      0.095898
     78 H34        -0.6100   -6.4720   -1.8830 h1        1 MOL      0.095898
     79 N8         -0.9140   -4.0840    0.3280 n         1 MOL     -0.434485
     80 C25        -0.6160   -3.8130    1.7290 c3        1 MOL      0.198615
     81 C26        -0.1990   -2.3390    1.8870 c         1 MOL      0.386317
     82 O14        -0.5160   -1.4740    1.1110 o         1 MOL     -0.492789
     83 C27        -1.8780   -4.0190    2.6090 c3        1 MOL      0.286165
     84 C28        -2.4970   -5.4320    2.6040 c3        1 MOL     -0.409626
     85 O15        -1.6210   -3.7800    3.9600 oh        1 MOL     -0.646646
     86 H35        -1.1960   -3.3520   -0.3080 hn        1 MOL      0.260930
     87 H36         0.1840   -4.4590    2.0700 h1        1 MOL      0.043011
     88 H37        -2.6920   -3.3510    2.3300 h1        1 MOL      0.036268
     89 H38        -2.3780   -3.9900    4.5010 ho        1 MOL      0.407025
     90 H39        -2.0040   -6.1060    3.3130 hc        1 MOL      0.103796
     91 H40        -3.5580   -5.3610    2.8460 hc        1 MOL      0.103796
     92 H41        -2.4920   -5.8170    1.5830 hc        1 MOL      0.103796
     93 N9          0.5330   -1.9950    2.9700 n         1 MOL     -0.107284
     94 C29         1.0100   -0.6130    3.2170 c3        1 MOL     -0.267325
     95 C30         2.2680   -0.2760    2.4110 c         1 MOL      0.542917
     96 O16         2.5950    0.9030    2.1350 o         1 MOL     -0.533993
     97 C31         0.9790   -0.2410    4.7680 c3        1 MOL      0.287075
     98 C32        -0.2760   -0.6280    5.6110 c3        1 MOL     -0.109458
     99 C33         1.2460    1.2410    5.0250 c3        1 MOL     -0.516741
    100 C34        -1.6380   -0.2790    4.9710 c3        1 MOL      0.011727
    101 H42         0.6410   -2.7400    3.6400 hn        1 MOL      0.176544
    102 H43         0.2950    0.1050    2.8260 h1        1 MOL      0.150932
    103 H44         1.8360   -0.7230    5.2230 hc        1 MOL     -0.016666
    104 H45        -0.1950   -0.1880    6.5970 hc        1 MOL      0.022170
    105 H46        -0.3330   -1.7040    5.7310 hc        1 MOL      0.022170
    106 H47         2.2660    1.4220    4.6910 hc        1 MOL      0.142023
    107 H48         0.4430    1.8520    4.5990 hc        1 MOL      0.142023
    108 H49         1.2880    1.3830    6.1020 hc        1 MOL      0.142023
    109 H50        -1.6960   -0.9110    4.0760 hc        1 MOL     -0.012262
    110 H51        -2.4990   -0.4080    5.6210 hc        1 MOL     -0.012262
    111 H52        -1.6440    0.7400    4.5950 hc        1 MOL     -0.012262
    112 N10         3.1650   -1.2720    2.2420 n         1 MOL     -0.339005
    113 C35         4.4140   -1.3310    1.3260 c3        1 MOL     -0.083200
    114 C36         5.6410   -1.9280    1.9220 c         1 MOL      0.670510
    115 O17         5.5910   -2.6700    2.9280 o         1 MOL     -0.538645
    116 C37         4.0950   -2.1290    0.0460 c3        1 MOL      0.318143
    117 C38         3.5610   -3.5580    0.3250 c3        1 MOL     -0.111991
    118 O18         3.0270   -1.5680   -0.6380 oh        1 MOL     -0.601062
    119 H53         2.9390   -2.1930    2.5860 hn        1 MOL      0.184493
    120 H54         4.5410   -0.2890    1.0490 h1        1 MOL      0.082770
    121 H55         4.9430   -2.2510   -0.6310 h1        1 MOL     -0.006100
    122 H56         3.2110   -0.6920   -0.9810 ho        1 MOL      0.400054
    123 H57         4.3830   -4.0970    0.8030 hc        1 MOL      0.032267
    124 H58         2.5810   -3.5850    0.7890 hc        1 MOL      0.032267
    125 H59         3.4680   -4.0320   -0.6520 hc        1 MOL      0.032267
    126 N11         6.8030   -1.6060    1.3130 n         1 MOL     -0.597125
    127 C39         8.0880   -2.1850    1.7460 c3        1 MOL     -0.006528
    128 C40         9.1420   -1.1590    1.4830 c         1 MOL      0.721066
    129 O19         9.9480   -0.9210    2.3630 o         1 MOL     -0.586787
    130 C41         8.2150   -3.4400    0.9200 c3        1 MOL      0.212391
    131 C42         9.5750   -4.1230    1.0470 c3        1 MOL     -0.271851
    132 O20         8.0890   -3.2860   -0.4420 oh        1 MOL     -0.665221
    133 H60         6.8060   -1.2030    0.3850 hn        1 MOL      0.265695
    134 H61         8.0790   -2.4250    2.8040 h1        1 MOL      0.130218
    135 H62         7.5020   -4.1780    1.2630 h1        1 MOL      0.074704
    136 H63         7.7460   -4.0150   -0.9640 ho        1 MOL      0.445534
    137 H64         9.6500   -5.1070    0.5890 hc        1 MOL      0.065977
    138 H65        10.3720   -3.4960    0.6490 hc        1 MOL      0.065977
    139 H66         9.8070   -4.2480    2.1030 hc        1 MOL      0.065977
    140 N12         9.1780   -0.4170    0.3760 n         1 MOL     -0.526254
    141 C43        10.1730    0.6230    0.0520 c3        1 MOL     -0.074133
    142 C44         9.6020    1.6010   -0.9780 c         1 MOL      0.431776
    143 O21         9.2640    1.1690   -2.0620 o         1 MOL     -0.528820
    144 C45        11.4110   -0.1790   -0.3760 c3        1 MOL     -0.275144
    145 C46        12.4970    0.7160   -1.0360 c3        1 MOL      0.250146
    146 C47        13.8090    0.0230   -1.3890 c3        1 MOL     -0.019683
    147 C48        13.5130   -1.4480   -1.9520 c3        1 MOL      0.070962
    148 N13        14.7350   -2.2500   -2.3160 n4        1 MOL     -0.369258
    149 H67         8.5440   -0.7030   -0.3630 hn        1 MOL      0.343975
    150 H68        10.4190    1.1350    0.9860 h1        1 MOL      0.129620
    151 H69        11.1520   -0.9570   -1.1040 hc        1 MOL      0.102651
    152 H70        11.8960   -0.6230    0.4880 hc        1 MOL      0.102651
    153 H71        12.7260    1.5240   -0.3490 hc        1 MOL     -0.047932
    154 H72        12.0640    1.1450   -1.9470 hc        1 MOL     -0.047932
    155 H73        14.3510   -0.0030   -0.4450 hc        1 MOL      0.029917
    156 H74        14.3420    0.6390   -2.1170 hc        1 MOL      0.029917
    157 H75        12.9330   -1.3060   -2.8580 hx        1 MOL      0.074996
    158 H76        12.9200   -2.0880   -1.2930 hx        1 MOL      0.074996
    159 H77        15.2430   -1.8690   -3.1070 hn        1 MOL      0.290875
    160 H78        15.3370   -2.4800   -1.5300 hn        1 MOL      0.290875
    161 H79        14.5370   -3.1240   -2.7750 hn        1 MOL      0.290875
    162 N14         9.3300    2.8360   -0.6160 n         1 MOL     -0.290732
    163 C49         8.8850    3.9030   -1.4910 c3        1 MOL      0.446979
    164 C50         7.3410    4.1840   -1.3780 c         1 MOL      0.285938
    165 O22         6.7500    4.4260   -2.4130 o         1 MOL     -0.511417
    166 C51         9.7740    5.1090   -1.4180 c3        1 MOL     -0.181263
    167 C52        11.3210    4.7610   -1.4770 c3        1 MOL     -0.255017
    168 C53        12.3250    5.7650   -0.8060 c         1 MOL      0.584399
    169 O23        12.0560    6.9970   -0.8870 o         1 MOL     -0.630302
    170 O24        13.4590    5.3440   -0.4800 o         1 MOL     -0.630302
    171 H80         9.7360    3.0950    0.2710 hn        1 MOL      0.249481
    172 H81         9.0390    3.5690   -2.5210 h1        1 MOL     -0.022940
    173 H82         9.5420    5.6010   -0.4650 hc        1 MOL      0.073924
    174 H83         9.5380    5.8300   -2.1940 hc        1 MOL      0.073924
    175 H84        11.5560    4.5570   -2.5200 hc        1 MOL      0.082531
    176 H85        11.5900    3.7850   -1.0740 hc        1 MOL      0.082531
    177 N15         6.6800    4.3910   -0.2170 n         1 MOL     -0.320029
    178 C54         7.1320    4.2350    1.1540 c3        1 MOL     -0.088576
    179 H86         7.8860    3.4500    1.2010 h1        1 MOL      0.048828
    180 H87         7.5640    5.1730    1.5040 h1        1 MOL      0.048828
    181 H88         6.2870    3.9650    1.7880 h1        1 MOL      0.048828
    182 H89         5.6840    4.5180   -0.2400 hn        1 MOL      0.298460
    183 Ca1        -5.6990    4.1710    0.7200 Ca        1 MOL      1.745747
    184 O25        -4.9740    6.5830   -0.3240 oh        1 MOL     -0.903100
    185 H90        -5.4100    6.8880   -1.1250 ho        1 MOL      0.442060
    186 H91        -4.2590    7.1960   -0.1840 ho        1 MOL      0.442060
    187 O26        -5.0690    2.1320    2.3410 oh        1 MOL     -0.903100
    188 H92        -5.6960    1.9420    3.0290 ho        1 MOL      0.442060
    189 H93        -4.6130    1.2940    2.1850 ho        1 MOL      0.442060
    190 O27        -3.1410    4.4090    1.6970 oh        1 MOL     -0.903100
    191 H94        -2.2890    4.1040    1.9880 ho        1 MOL      0.442060
    192 H95        -3.5310    4.8040    2.4700 ho        1 MOL      0.442060
@<TRIPOS>BOND
     1    1    2 1   
     2    1    4 1   
     3    1    5 1   
     4    1    6 1   
     5    2    3 2   
     6    2    7 1   
     7    7    8 1   
     8    7   15 1   
     9    8    9 1   
    10    8   11 1   
    11    8   16 1   
    12    9   10 2   
    13    9   19 1   
    14   11   12 1   
    15   11   17 1   
    16   11   18 1   
    17   12   13 1   
    18   12   14 1   
    19   19   20 1   
    20   19   28 1   
    21   20   21 1   
    22   20   23 1   
    23   20   29 1   
    24   21   22 2   
    25   21   41 1   
    26   23   24 1   
    27   23   30 1   
    28   23   31 1   
    29   24   25 1   
    30   24   32 1   
    31   24   33 1   
    32   25   26 1   
    33   25   34 1   
    34   25   35 1   
    35   26   27 1   
    36   26   36 1   
    37   26   37 1   
    38   27   38 1   
    39   27   39 1   
    40   27   40 1   
    41   41   42 1   
    42   41   49 1   
    43   42   43 1   
    44   42   45 1   
    45   42   50 1   
    46   43   44 2   
    47   43   53 1   
    48   45   46 1   
    49   45   51 1   
    50   45   52 1   
    51   46   47 1   
    52   46   48 1   
    53   53   54 1   
    54   53   57 1   
    55   54   55 1   
    56   54   58 1   
    57   54   59 1   
    58   55   56 2   
    59   55   60 1   
    60   60   61 1   
    61   60   68 1   
    62   61   62 1   
    63   61   64 1   
    64   61   69 1   
    65   62   63 2   
    66   62   72 1   
    67   64   65 1   
    68   64   70 1   
    69   64   71 1   
    70   65   66 1   
    71   65   67 1   
    72   72   73 1   
    73   72   76 1   
    74   73   74 1   
    75   73   77 1   
    76   73   78 1   
    77   74   75 2   
    78   74   79 1   
    79   79   80 1   
    80   79   86 1   
    81   80   81 1   
    82   80   83 1   
    83   80   87 1   
    84   81   82 2   
    85   81   93 1   
    86   83   84 1   
    87   83   85 1   
    88   83   88 1   
    89   84   90 1   
    90   84   91 1   
    91   84   92 1   
    92   85   89 1   
    93   93   94 1   
    94   93  101 1   
    95   94   95 1   
    96   94   97 1   
    97   94  102 1   
    98   95   96 2   
    99   95  112 1   
   100   97   98 1   
   101   97   99 1   
   102   97  103 1   
   103   98  100 1   
   104   98  104 1   
   105   98  105 1   
   106   99  106 1   
   107   99  107 1   
   108   99  108 1   
   109  100  109 1   
   110  100  110 1   
   111  100  111 1   
   112  112  113 1   
   113  112  119 1   
   114  113  114 1   
   115  113  116 1   
   116  113  120 1   
   117  114  115 2   
   118  114  126 1   
   119  116  117 1   
   120  116  118 1   
   121  116  121 1   
   122  117  123 1   
   123  117  124 1   
   124  117  125 1   
   125  118  122 1   
   126  126  127 1   
   127  126  133 1   
   128  127  128 1   
   129  127  130 1   
   130  127  134 1   
   131  128  129 2   
   132  128  140 1   
   133  130  131 1   
   134  130  132 1   
   135  130  135 1   
   136  131  137 1   
   137  131  138 1   
   138  131  139 1   
   139  132  136 1   
   140  140  141 1   
   141  140  149 1   
   142  141  142 1   
   143  141  144 1   
   144  141  150 1   
   145  142  143 2   
   146  142  162 1   
   147  144  145 1   
   148  144  151 1   
   149  144  152 1   
   150  145  146 1   
   151  145  153 1   
   152  145  154 1   
   153  146  147 1   
   154  146  155 1   
   155  146  156 1   
   156  147  148 1   
   157  147  157 1   
   158  147  158 1   
   159  148  159 1   
   160  148  160 1   
   161  148  161 1   
   162  162  163 1   
   163  162  171 1   
   164  163  164 1   
   165  163  166 1   
   166  163  172 1   
   167  164  165 2   
   168  164  177 1   
   169  166  167 1   
   170  166  173 1   
   171  166  174 1   
   172  167  168 1   
   173  167  175 1   
   174  167  176 1   
   175  168  169 1   
   176  168  170 1   
   177  177  178 1   
   178  177  182 1   
   179  178  179 1   
   180  178  180 1   
   181  178  181 1   
   182  184  185 1   
   183  184  186 1   
   184  187  188 1   
   185  187  189 1   
   186  190  191 1   
   187  190  192 1   
@<TRIPOS>SUBSTRUCTURE
     1 MOL         1 TEMP              0 ****  ****    0 ROOT
