@<TRIPOS>MOLECULE
MOL
  188   182     1     0     0
SMALL
resp


@<TRIPOS>ATOM
      1 C1          4.0990   -1.6820    5.6860 c3        1 MOL     -0.455941
      2 C2          3.4670   -1.5040    4.3090 c         1 MOL      0.580755
      3 O1          2.2670   -1.8310    4.1830 o         1 MOL     -0.579861
      4 H1          4.0990   -2.7390    5.9510 hc        1 MOL      0.120641
      5 H2          5.1250   -1.3140    5.6660 hc        1 MOL      0.120641
      6 H3          3.5260   -1.1220    6.4250 hc        1 MOL      0.120641
      7 N1          4.2040   -0.9820    3.3550 n         1 MOL     -0.348673
      8 C3          3.6430   -0.7290    2.0580 c3        1 MOL     -0.015246
      9 C4          3.4290   -2.0170    1.2410 c         1 MOL      0.602315
     10 O2          2.4850   -2.0240    0.3980 o         1 MOL     -0.608001
     11 C5          4.6020    0.2510    1.4500 c3        1 MOL     -0.218841
     12 C6          6.0370   -0.2240    1.4150 c         1 MOL      0.505301
     13 O3          6.3190   -1.3220    0.9300 o         1 MOL     -0.586136
     14 O4          6.9970    0.5040    1.7000 o         1 MOL     -0.586136
     15 H4          5.1780   -0.7230    3.4460 hn        1 MOL      0.288516
     16 H5          2.6690   -0.2640    2.1740 h1        1 MOL      0.129999
     17 H6          4.3760    1.2020    1.9270 hc        1 MOL      0.059869
     18 H7          4.3410    0.4360    0.4040 hc        1 MOL      0.059869
     19 N2          4.2150   -3.1080    1.5200 n         1 MOL     -0.659107
     20 C7          4.3600   -4.3130    0.7120 c3        1 MOL      0.071937
     21 C8          5.1080   -3.9160   -0.6280 c         1 MOL      0.473192
     22 O5          6.3300   -3.9280   -0.7670 o         1 MOL     -0.520814
     23 C9          5.0350   -5.5200    1.3960 c3        1 MOL     -0.026809
     24 C10         4.4400   -5.8140    2.7900 c3        1 MOL     -0.000671
     25 C11         5.1470   -6.9930    3.4540 c3        1 MOL     -0.110790
     26 C12         4.4800   -7.5050    4.6850 c3        1 MOL      0.200704
     27 N3          5.1590   -8.6930    5.3200 n4        1 MOL     -0.378236
     28 H8          4.8110   -2.9660    2.3180 hn        1 MOL      0.409310
     29 H9          3.3740   -4.6220    0.3600 h1        1 MOL      0.105187
     30 H10         6.0890   -5.2660    1.4760 hc        1 MOL      0.037216
     31 H11         4.9730   -6.4270    0.7950 hc        1 MOL      0.037216
     32 H12         3.4090   -6.0930    2.5470 hc        1 MOL      0.019161
     33 H13         4.5310   -4.8870    3.3660 hc        1 MOL      0.019161
     34 H14         6.1660   -6.7960    3.8120 hc        1 MOL      0.049481
     35 H15         5.0880   -7.8380    2.7730 hc        1 MOL      0.049481
     36 H16         3.4640   -7.7040    4.3480 hx        1 MOL      0.040041
     37 H17         4.2910   -6.7130    5.4140 hx        1 MOL      0.040041
     38 H18         4.7930   -8.9730    6.2190 hn        1 MOL      0.301974
     39 H19         5.0850   -9.5390    4.7620 hn        1 MOL      0.301974
     40 H20         6.1610   -8.6560    5.4770 hn        1 MOL      0.301974
     41 N4          4.2660   -3.6660   -1.6340 n         1 MOL     -0.404149
     42 C13         4.6150   -3.2630   -3.0040 c3        1 MOL      0.083231
     43 C14         5.1340   -1.8460   -3.2050 c         1 MOL      0.583174
     44 O6          4.9780   -1.2830   -4.2980 o         1 MOL     -0.534195
     45 C15         3.4570   -3.7870   -3.8580 c3        1 MOL     -0.299615
     46 C16         2.1100   -3.0190   -3.5390 c         1 MOL      0.760488
     47 O7          1.4070   -3.3650   -2.5680 o         1 MOL     -0.692038
     48 O8          1.8850   -1.9810   -4.2110 o         1 MOL     -0.692038
     49 H21         3.2980   -3.7340   -1.3560 hn        1 MOL      0.209517
     50 H22         5.5350   -3.8150   -3.2100 h1        1 MOL      0.079407
     51 H23         3.2360   -4.8470   -3.7620 hc        1 MOL      0.082943
     52 H24         3.6930   -3.6500   -4.9120 hc        1 MOL      0.082943
     53 N5          5.7270   -1.2040   -2.2290 n         1 MOL     -0.525080
     54 C17         5.8170    0.2230   -2.3570 c3        1 MOL      0.125699
     55 C18         6.9490    0.8440   -3.1380 c         1 MOL      0.564826
     56 O9          7.9270    0.2090   -3.4890 o         1 MOL     -0.530090
     57 H25         6.1790   -1.6120   -1.4240 hn        1 MOL      0.376516
     58 H26         5.7930    0.7320   -1.3990 h1        1 MOL      0.069680
     59 H27         4.9390    0.6320   -2.8680 h1        1 MOL      0.069680
     60 N6          6.9900    2.1530   -3.4980 n         1 MOL     -0.574350
     61 C19         6.1490    3.2320   -3.0430 c3        1 MOL      0.187981
     62 C20         6.3990    3.4280   -1.5720 c         1 MOL      0.409740
     63 O10         7.5260    3.4470   -1.1020 o         1 MOL     -0.465188
     64 C21         6.3690    4.5110   -3.8630 c3        1 MOL     -0.278926
     65 C22         5.8060    5.7800   -3.2240 c         1 MOL      0.646782
     66 N7          4.5260    6.0030   -3.4820 n         1 MOL     -0.772038
     67 O11         6.4570    6.5230   -2.5490 o         1 MOL     -0.515758
     68 H28         7.7170    2.3290   -4.1750 hn        1 MOL      0.333135
     69 H29         5.1210    2.8870   -3.1260 h1        1 MOL      0.016328
     70 H30         5.9750    4.4850   -4.8800 hc        1 MOL      0.091886
     71 H31         7.4450    4.6420   -3.9280 hc        1 MOL      0.091886
     72 H32         4.0490    5.3480   -4.0910 hn        1 MOL      0.356335
     73 H33         4.1580    6.8990   -3.1960 hn        1 MOL      0.356335
     74 N8          5.3420    3.5260   -0.7640 n         1 MOL     -0.336711
     75 C23         3.9040    3.2830   -1.0050 c3        1 MOL      0.091489
     76 C24         2.9560    3.9280    0.0260 c         1 MOL      0.561637
     77 O12         3.4520    4.3440    1.1140 o         1 MOL     -0.501115
     78 H34         5.5300    3.6630    0.2150 hn        1 MOL      0.260125
     79 H35         3.7640    2.2020   -1.0500 h1        1 MOL     -0.041829
     80 H36         3.6200    3.7500   -1.9440 h1        1 MOL     -0.041829
     81 N9          1.6940    4.0780   -0.2810 n         1 MOL     -0.456432
     82 C25         0.6840    4.3210    0.6800 c3        1 MOL      0.033712
     83 C26        -0.6600    3.6390    0.3540 c         1 MOL      0.803222
     84 O13        -0.9190    3.1660   -0.6990 o         1 MOL     -0.598026
     85 C27         0.5740    5.8630    0.8890 c3        1 MOL     -0.162131
     86 C28        -0.2840    6.2630    2.0490 ca        1 MOL      0.082538
     87 C29        -1.6500    6.5730    1.8100 ca        1 MOL     -0.153016
     88 C30         0.3120    6.4810    3.2840 ca        1 MOL     -0.153016
     89 C31        -2.3420    7.1670    2.9150 ca        1 MOL     -0.243525
     90 C32        -0.4370    6.9400    4.3770 ca        1 MOL     -0.243525
     91 C33        -1.7970    7.2760    4.1900 ca        1 MOL      0.330987
     92 O14        -2.5710    7.7530    5.2490 oh        1 MOL     -0.496846
     93 H37         1.4180    3.7930   -1.2180 hn        1 MOL      0.267648
     94 H38         0.9440    3.9900    1.6880 h1        1 MOL      0.036339
     95 H39         0.2650    6.3910   -0.0190 hc        1 MOL      0.083007
     96 H40         1.5870    6.1930    1.1570 hc        1 MOL      0.083007
     97 H41        -2.2100    6.4870    0.8890 ha        1 MOL      0.144454
     98 H42         1.3160    6.1070    3.4310 ha        1 MOL      0.144454
     99 H43        -3.3950    7.3820    2.8110 ha        1 MOL      0.138226
    100 H44        -0.0150    6.8490    5.3730 ha        1 MOL      0.138226
    101 H45        -2.0750    7.6020    6.0530 ho        1 MOL      0.365394
    102 N10        -1.5190    3.4720    1.4240 n         1 MOL     -0.590121
    103 C34        -2.7790    2.7450    1.4340 c3        1 MOL     -0.210192
    104 C35        -3.9280    3.1790    0.4960 c         1 MOL      0.628955
    105 O15        -4.0140    4.3370    0.1450 o         1 MOL     -0.495005
    106 C36        -3.4480    2.6680    2.8480 c3        1 MOL      0.107026
    107 C37        -2.7150    1.6930    3.8140 c3        1 MOL     -0.137037
    108 C38        -3.4420    4.0790    3.5140 c3        1 MOL     -0.319263
    109 C39        -3.7100    1.5430    5.0180 c3        1 MOL     -0.184855
    110 H46        -1.3360    3.9890    2.2720 hn        1 MOL      0.268492
    111 H47        -2.5260    1.7450    1.0780 h1        1 MOL      0.133597
    112 H48        -4.4680    2.2920    2.7320 hc        1 MOL      0.037774
    113 H49        -1.8160    2.0700    4.2930 hc        1 MOL      0.090983
    114 H50        -2.5260    0.7470    3.3070 hc        1 MOL      0.090983
    115 H51        -3.8020    4.8080    2.7940 hc        1 MOL      0.105977
    116 H52        -4.0620    4.0710    4.4140 hc        1 MOL      0.105977
    117 H53        -2.4360    4.3880    3.8170 hc        1 MOL      0.105977
    118 H54        -3.3470    0.6210    5.4640 hc        1 MOL      0.052917
    119 H55        -3.7860    2.3960    5.6930 hc        1 MOL      0.052917
    120 H56        -4.7350    1.3210    4.7030 hc        1 MOL      0.052917
    121 N11        -4.8010    2.2200    0.1690 n         1 MOL     -0.412348
    122 C40        -5.8630    2.4570   -0.8850 c3        1 MOL      0.057056
    123 C41        -6.0540    1.1940   -1.7120 c         1 MOL      0.392047
    124 O16        -5.9060    0.0860   -1.1040 o         1 MOL     -0.461930
    125 C42        -7.2590    2.6730   -0.1590 c3        1 MOL      0.089666
    126 O17        -7.4620    4.0720   -0.0840 oh        1 MOL     -0.548270
    127 H57        -4.6130    1.2650    0.4040 hn        1 MOL      0.214699
    128 H58        -5.7280    3.3470   -1.4980 h1        1 MOL      0.061754
    129 H59        -7.2440    2.2120    0.8230 h1        1 MOL      0.069546
    130 H60        -8.1040    2.3740   -0.7840 h1        1 MOL      0.069546
    131 H61        -6.6590    4.4060    0.3150 ho        1 MOL      0.367767
    132 N12        -6.3320    1.2440   -2.9800 n         1 MOL     -0.368190
    133 C43        -6.5300    0.1790   -3.9030 c3        1 MOL      0.021081
    134 C44        -7.5080   -0.9060   -3.4480 c         1 MOL      0.432729
    135 O18        -7.3090   -2.0980   -3.7090 o         1 MOL     -0.454786
    136 C45        -5.0790   -0.2990   -4.3030 c3        1 MOL     -0.162876
    137 H62        -6.4680    2.1790   -3.3430 hn        1 MOL      0.295765
    138 H63        -7.0460    0.5960   -4.7690 h1        1 MOL      0.092115
    139 H64        -5.2730   -1.0820   -5.0380 hc        1 MOL      0.074999
    140 H65        -4.4390    0.4530   -4.7680 hc        1 MOL      0.074999
    141 H66        -4.5450   -0.7480   -3.4720 hc        1 MOL      0.074999
    142 N13        -8.4700   -0.5820   -2.6180 n         1 MOL     -0.365981
    143 C46        -9.3540   -1.5050   -1.9430 c3        1 MOL      0.294130
    144 C47        -8.7280   -2.6640   -1.1370 c         1 MOL      0.362005
    145 O19        -9.2900   -3.7350   -0.8820 o         1 MOL     -0.475755
    146 C48       -10.6080   -1.8100   -2.7860 c3        1 MOL     -0.208744
    147 H67        -8.6010    0.3800   -2.3350 hn        1 MOL      0.209815
    148 H68        -9.8600   -0.8840   -1.2000 h1        1 MOL      0.005127
    149 H69       -11.3690   -2.3580   -2.2210 hc        1 MOL      0.057656
    150 H70       -10.9220   -0.9800   -3.4180 hc        1 MOL      0.057656
    151 H71       -10.3530   -2.5680   -3.5230 hc        1 MOL      0.057656
    152 N14        -7.5010   -2.4510   -0.6920 n         1 MOL     -0.365041
    153 C49        -6.5560   -3.5620   -0.3800 c3        1 MOL      0.009135
    154 C50        -6.7660   -4.1300    1.0470 c         1 MOL      0.496080
    155 O20        -6.7960   -5.3170    1.2690 o         1 MOL     -0.521591
    156 C51        -5.0980   -3.1020   -0.6610 c3        1 MOL      0.223454
    157 C52        -4.0260   -4.1840   -0.6080 c3        1 MOL     -0.600367
    158 C53        -2.6130   -3.6790   -0.7450 c         1 MOL      0.966103
    159 O21        -1.9270   -3.5270    0.2800 o         1 MOL     -0.802446
    160 O22        -2.0870   -3.3740   -1.8360 o         1 MOL     -0.802446
    161 H72        -7.1220   -1.5130   -0.7280 hn        1 MOL      0.117167
    162 H73        -6.8170   -4.3330   -1.1000 h1        1 MOL      0.135899
    163 H74        -4.8340   -2.4030    0.1320 hc        1 MOL     -0.002889
    164 H75        -5.1490   -2.6550   -1.6600 hc        1 MOL     -0.002889
    165 H76        -4.1600   -4.7590   -1.5230 hc        1 MOL      0.130922
    166 H77        -4.0710   -4.8810    0.2340 hc        1 MOL      0.130922
    167 N15        -7.0220   -3.2700    2.0460 n         1 MOL     -0.276601
    168 C54        -7.7050   -3.6030    3.3500 c3        1 MOL     -0.383549
    169 H78        -6.9570   -3.8940    4.0870 h1        1 MOL      0.153915
    170 H79        -8.2480   -2.7300    3.7100 h1        1 MOL      0.153915
    171 H80        -8.4020   -4.4270    3.1960 h1        1 MOL      0.153915
    172 H81        -6.7280   -2.3180    1.8940 hn        1 MOL      0.226409
    173 Ca1         0.0000   -2.0920   -0.6730 Ca        1 MOL      1.767601
    174 O23        -2.0880   -0.6030   -0.6690 oh        1 MOL     -0.828795
    175 H82        -2.9500   -0.4140   -0.2890 ho        1 MOL      0.398156
    176 H83        -1.9810    0.0440   -1.3690 ho        1 MOL      0.398156
    177 O24        -0.6740   -1.4910    2.0400 oh        1 MOL     -0.828795
    178 H84        -0.5440   -2.3780    2.3870 ho        1 MOL      0.398156
    179 H85        -1.5410   -1.2380    2.3420 ho        1 MOL      0.398156
    180 O25         0.9180   -4.3320    0.5150 oh        1 MOL     -0.828795
    181 H86         0.9110   -5.2910    0.5620 ho        1 MOL      0.398156
    182 H87         1.1800   -4.0520    1.3890 ho        1 MOL      0.398156
    183 O26        -0.0540   -0.8440   -3.0200 oh        1 MOL     -0.828795
    184 H88        -0.2030    0.0750   -3.2350 ho        1 MOL      0.398156
    185 H89         0.5350   -1.1570   -3.7090 ho        1 MOL      0.398156
    186 O27         0.6590    0.5020   -0.4620 oh        1 MOL     -0.828795
    187 H90         0.7160    1.0260   -1.2510 ho        1 MOL      0.398156
    188 H91         0.7180    1.1280    0.2530 ho        1 MOL      0.398156
@<TRIPOS>BOND
     1    1    2 1   
     2    1    4 1   
     3    1    5 1   
     4    1    6 1   
     5    2    3 2   
     6    2    7 1   
     7    7    8 1   
     8    7   15 1   
     9    8    9 1   
    10    8   11 1   
    11    8   16 1   
    12    9   10 2   
    13    9   19 1   
    14   11   12 1   
    15   11   17 1   
    16   11   18 1   
    17   12   13 1   
    18   12   14 1   
    19   19   20 1   
    20   19   28 1   
    21   20   21 1   
    22   20   23 1   
    23   20   29 1   
    24   21   22 2   
    25   21   41 1   
    26   23   24 1   
    27   23   30 1   
    28   23   31 1   
    29   24   25 1   
    30   24   32 1   
    31   24   33 1   
    32   25   26 1   
    33   25   34 1   
    34   25   35 1   
    35   26   27 1   
    36   26   36 1   
    37   26   37 1   
    38   27   38 1   
    39   27   39 1   
    40   27   40 1   
    41   41   42 1   
    42   41   49 1   
    43   42   43 1   
    44   42   45 1   
    45   42   50 1   
    46   43   44 2   
    47   43   53 1   
    48   45   46 1   
    49   45   51 1   
    50   45   52 1   
    51   46   47 1   
    52   46   48 1   
    53   53   54 1   
    54   53   57 1   
    55   54   55 1   
    56   54   58 1   
    57   54   59 1   
    58   55   56 2   
    59   55   60 1   
    60   60   61 1   
    61   60   68 1   
    62   61   62 1   
    63   61   64 1   
    64   61   69 1   
    65   62   63 2   
    66   62   74 1   
    67   64   65 1   
    68   64   70 1   
    69   64   71 1   
    70   65   66 1   
    71   65   67 2   
    72   66   72 1   
    73   66   73 1   
    74   74   75 1   
    75   74   78 1   
    76   75   76 1   
    77   75   79 1   
    78   75   80 1   
    79   76   77 2   
    80   76   81 1   
    81   81   82 1   
    82   81   93 1   
    83   82   83 1   
    84   82   85 1   
    85   82   94 1   
    86   83   84 2   
    87   83  102 1   
    88   85   86 1   
    89   85   95 1   
    90   85   96 1   
    91   86   87 ar  
    92   86   88 ar  
    93   87   89 ar  
    94   87   97 1   
    95   88   90 ar  
    96   88   98 1   
    97   89   91 ar  
    98   89   99 1   
    99   90   91 ar  
   100   90  100 1   
   101   91   92 1   
   102   92  101 1   
   103  102  103 1   
   104  102  110 1   
   105  103  104 1   
   106  103  106 1   
   107  103  111 1   
   108  104  105 2   
   109  104  121 1   
   110  106  107 1   
   111  106  108 1   
   112  106  112 1   
   113  107  109 1   
   114  107  113 1   
   115  107  114 1   
   116  108  115 1   
   117  108  116 1   
   118  108  117 1   
   119  109  118 1   
   120  109  119 1   
   121  109  120 1   
   122  121  122 1   
   123  121  127 1   
   124  122  123 1   
   125  122  125 1   
   126  122  128 1   
   127  123  124 2   
   128  123  132 1   
   129  125  126 1   
   130  125  129 1   
   131  125  130 1   
   132  126  131 1   
   133  132  133 1   
   134  132  137 1   
   135  133  134 1   
   136  133  136 1   
   137  133  138 1   
   138  134  135 2   
   139  134  142 1   
   140  136  139 1   
   141  136  140 1   
   142  136  141 1   
   143  142  143 1   
   144  142  147 1   
   145  143  144 1   
   146  143  146 1   
   147  143  148 1   
   148  144  145 2   
   149  144  152 1   
   150  146  149 1   
   151  146  150 1   
   152  146  151 1   
   153  152  153 1   
   154  152  161 1   
   155  153  154 1   
   156  153  156 1   
   157  153  162 1   
   158  154  155 2   
   159  154  167 1   
   160  156  157 1   
   161  156  163 1   
   162  156  164 1   
   163  157  158 1   
   164  157  165 1   
   165  157  166 1   
   166  158  159 1   
   167  158  160 1   
   168  167  168 1   
   169  167  172 1   
   170  168  169 1   
   171  168  170 1   
   172  168  171 1   
   173  174  175 1   
   174  174  176 1   
   175  177  178 1   
   176  177  179 1   
   177  180  181 1   
   178  180  182 1   
   179  183  184 1   
   180  183  185 1   
   181  186  187 1   
   182  186  188 1   
@<TRIPOS>SUBSTRUCTURE
     1 MOL         1 TEMP              0 ****  ****    0 ROOT
