@<TRIPOS>MOLECULE
MOL
  191   184     1     0     0
SMALL
resp


@<TRIPOS>ATOM
      1 C1          4.0580    1.3920    2.8350 c3        1 MOL     -0.140933
      2 C2          5.3380    1.3770    1.9410 c         1 MOL      0.807672
      3 O1          5.2700    1.2910    0.7340 o         1 MOL     -0.523888
      4 H1          4.0260    2.3190    3.4080 hc        1 MOL      0.035160
      5 H2          3.1730    1.3250    2.2020 hc        1 MOL      0.035160
      6 H3          4.0810    0.5430    3.5180 hc        1 MOL      0.035160
      7 N1          6.5530    1.3030    2.5260 n         1 MOL     -0.645742
      8 C3          7.8790    1.1640    1.7790 c3        1 MOL      0.042709
      9 C4          7.9570    0.0040    0.7940 c         1 MOL      0.610372
     10 O2          8.4330    0.1530   -0.3500 o         1 MOL     -0.543769
     11 C5          8.3170    2.5250    1.2240 c3        1 MOL     -0.517772
     12 C6          8.2300    3.5500    2.2950 c         1 MOL      0.827614
     13 O3          7.4730    4.5030    2.2230 o         1 MOL     -0.686336
     14 O4          9.0570    3.4860    3.2340 o         1 MOL     -0.686336
     15 H4          6.6360    1.2770    3.5320 hn        1 MOL      0.332753
     16 H5          8.5390    0.9610    2.6300 h1        1 MOL      0.044906
     17 H6          7.6410    2.8940    0.4410 hc        1 MOL      0.162494
     18 H7          9.3320    2.3890    0.8550 hc        1 MOL      0.162494
     19 N2          7.4420   -1.1830    1.1650 n         1 MOL     -0.482549
     20 C7          7.2760   -2.3910    0.3210 c3        1 MOL      0.125082
     21 C8          5.9440   -2.6590   -0.3090 c         1 MOL      0.581558
     22 O5          5.8710   -3.7280   -0.8460 o         1 MOL     -0.605205
     23 C9          8.0170   -3.6360    1.0020 c3        1 MOL     -0.345416
     24 C10         9.5500   -3.4720    1.1080 c3        1 MOL      0.126480
     25 C11        10.1740   -3.2200   -0.2820 c3        1 MOL     -0.051278
     26 C12        11.6680   -3.6350   -0.2530 c3        1 MOL     -0.048152
     27 N3         12.3760   -2.7240    0.6990 n4        1 MOL     -0.416135
     28 H8          7.0450   -1.3200    2.0820 hn        1 MOL      0.256233
     29 H9          7.8410   -2.3200   -0.6120 h1        1 MOL      0.053782
     30 H10         7.8160   -4.5100    0.3730 hc        1 MOL      0.111176
     31 H11         7.5470   -3.7220    1.9740 hc        1 MOL      0.111176
     32 H12         9.8890   -4.4220    1.5290 hc        1 MOL     -0.012953
     33 H13         9.8100   -2.6860    1.8180 hc        1 MOL     -0.012953
     34 H14        10.0070   -2.1870   -0.5620 hc        1 MOL      0.076857
     35 H15         9.7420   -3.7940   -1.1010 hc        1 MOL      0.076857
     36 H16        11.9710   -3.7320   -1.2990 hx        1 MOL      0.114251
     37 H17        11.8640   -4.6890   -0.0200 hx        1 MOL      0.114251
     38 H18        12.1780   -2.8690    1.6800 hn        1 MOL      0.308619
     39 H19        13.3700   -2.7520    0.5800 hn        1 MOL      0.308619
     40 H20        12.2370   -1.7490    0.4730 hn        1 MOL      0.308619
     41 N4          4.9250   -1.8420   -0.0320 n         1 MOL     -0.289007
     42 C13         3.5770   -2.2710   -0.3090 c3        1 MOL     -0.310254
     43 C14         3.2100   -1.9870   -1.7660 c         1 MOL      0.710652
     44 O6          3.1360   -0.8000   -2.0890 o         1 MOL     -0.505394
     45 C15         2.6300   -1.4340    0.5950 c3        1 MOL     -0.039179
     46 C16         1.1460   -1.9080    0.5670 c         1 MOL      0.534872
     47 O7          0.4350   -1.5900    1.5540 o         1 MOL     -0.627628
     48 O8          0.7360   -2.6880   -0.4020 o         1 MOL     -0.627628
     49 H21         5.1370   -0.9110    0.3120 hn        1 MOL      0.189601
     50 H22         3.4690   -3.3400   -0.1920 h1        1 MOL      0.146203
     51 H23         2.5490   -0.4270    0.1780 hc        1 MOL      0.060322
     52 H24         3.0330   -1.3680    1.6050 hc        1 MOL      0.060322
     53 N5          3.0130   -3.0550   -2.5510 n         1 MOL     -0.575213
     54 C17         2.4650   -2.9370   -3.9420 c3        1 MOL      0.152740
     55 C18         1.2160   -1.9990   -4.1230 c         1 MOL      0.296931
     56 O9          1.1100   -1.4170   -5.1960 o         1 MOL     -0.505945
     57 H25         3.2430   -3.9760   -2.1980 hn        1 MOL      0.335123
     58 H26         2.0980   -3.9380   -4.1840 h1        1 MOL      0.033222
     59 H27         3.1700   -2.8020   -4.7570 h1        1 MOL      0.033222
     60 N6          0.3560   -1.7570   -3.1450 n         1 MOL     -0.149236
     61 C19        -0.7930   -0.8660   -3.2350 c3        1 MOL     -0.090132
     62 C20        -0.3670    0.6040   -3.0490 c         1 MOL      0.515584
     63 O10        -1.0870    1.5200   -3.4920 o         1 MOL     -0.501698
     64 C21        -1.9440   -1.2820   -2.3140 c3        1 MOL     -0.346138
     65 C22        -2.4350   -2.6820   -2.4670 c         1 MOL      0.706595
     66 N7         -3.0080   -2.9510   -3.6320 n         1 MOL     -0.775673
     67 O11        -2.3600   -3.5580   -1.6290 o         1 MOL     -0.601991
     68 H28         0.5530   -2.2360   -2.2810 hn        1 MOL      0.278328
     69 H29        -1.0280   -0.9890   -4.2890 h1        1 MOL      0.084567
     70 H30        -2.6420   -0.4720   -2.5050 hc        1 MOL      0.111137
     71 H31        -1.5200   -1.2460   -1.3110 hc        1 MOL      0.111137
     72 H32        -3.2480   -2.1040   -4.1370 hn        1 MOL      0.370336
     73 H33        -3.5330   -3.8050   -3.7420 hn        1 MOL      0.370336
     74 N8          0.7830    0.8070   -2.4450 n         1 MOL     -0.152091
     75 C23         1.2890    2.1850   -2.0640 c3        1 MOL     -0.033227
     76 C24         0.5160    3.0970   -1.1050 c         1 MOL      0.504703
     77 O12         0.3150    2.6980    0.0170 o         1 MOL     -0.484503
     78 H34         1.3830    0.0610   -2.1480 hn        1 MOL      0.148981
     79 H35         1.3510    2.7370   -3.0130 h1        1 MOL      0.059614
     80 H36         2.2440    2.0360   -1.5640 h1        1 MOL      0.059614
     81 N9          0.4390    4.4180   -1.4800 n         1 MOL     -0.508043
     82 C25        -0.1660    5.4980   -0.7140 c3        1 MOL      0.038292
     83 C26        -1.6350    5.2130   -0.3560 c         1 MOL      0.523911
     84 O13        -2.5740    5.7960   -0.9590 o         1 MOL     -0.579864
     85 C27         0.6810    5.7520    0.4930 c3        1 MOL     -0.227017
     86 C28         2.0340    6.3980    0.2950 ca        1 MOL      0.222223
     87 C29         3.1910    5.6090    0.2820 ca        1 MOL     -0.356056
     88 C30         2.0440    7.7790    0.2500 ca        1 MOL     -0.356056
     89 C31         4.3970    6.2870    0.0840 ca        1 MOL      0.002054
     90 C32         3.2580    8.3580    0.1400 ca        1 MOL      0.002054
     91 C33         4.4080    7.6360   -0.0470 ca        1 MOL      0.134064
     92 O14         5.5640    8.3280   -0.2850 oh        1 MOL     -0.425813
     93 H37         0.7800    4.6340   -2.4040 hn        1 MOL      0.343522
     94 H38        -0.2290    6.3280   -1.4120 h1        1 MOL      0.096179
     95 H39         0.8020    4.8550    1.1000 hc        1 MOL      0.092600
     96 H40         0.0940    6.4740    1.0680 hc        1 MOL      0.092600
     97 H41         3.1500    4.5300    0.2180 ha        1 MOL      0.169920
     98 H42         1.0820    8.2800    0.2990 ha        1 MOL      0.169920
     99 H43         5.2900    5.7220   -0.1100 ha        1 MOL      0.081351
    100 H44         3.2660    9.4260   -0.0180 ha        1 MOL      0.081351
    101 H45         5.4400    9.2770   -0.2460 ho        1 MOL      0.323693
    102 N10        -1.9510    4.2860    0.6060 n         1 MOL     -0.315091
    103 C34        -3.1780    3.7410    1.0530 c3        1 MOL     -0.018273
    104 C35        -3.7670    2.7670    0.0730 c         1 MOL      0.554750
    105 O15        -4.2090    1.6980    0.3980 o         1 MOL     -0.546639
    106 C36        -4.2820    4.7910    1.4550 c3        1 MOL      0.146595
    107 C37        -3.7540    5.8760    2.3760 c3        1 MOL      0.132481
    108 C38        -5.3590    3.9990    2.1590 c3        1 MOL     -0.354827
    109 C39        -2.7120    5.5110    3.4030 c3        1 MOL     -0.405697
    110 H46        -1.1480    3.7820    0.9540 hn        1 MOL      0.250607
    111 H47        -2.9600    3.0780    1.8800 h1        1 MOL      0.105343
    112 H48        -4.7480    5.2480    0.5930 hc        1 MOL      0.000185
    113 H49        -4.6100    6.4190    2.7990 hc        1 MOL     -0.017109
    114 H50        -3.2750    6.6310    1.7540 hc        1 MOL     -0.017109
    115 H51        -4.9180    3.4550    3.0020 hc        1 MOL      0.083245
    116 H52        -6.0910    4.7080    2.5510 hc        1 MOL      0.083245
    117 H53        -5.8430    3.3150    1.4710 hc        1 MOL      0.083245
    118 H54        -2.4590    6.3930    3.9910 hc        1 MOL      0.095609
    119 H55        -3.0630    4.8640    4.2120 hc        1 MOL      0.095609
    120 H56        -1.8180    4.9980    3.0440 hc        1 MOL      0.095609
    121 N11        -3.7690    3.1830   -1.2330 n         1 MOL     -0.393671
    122 C40        -4.2580    2.3770   -2.2870 c3        1 MOL     -0.387758
    123 C41        -5.7330    1.9830   -2.2000 c         1 MOL      0.409505
    124 O16        -6.1790    1.0590   -2.9040 o         1 MOL     -0.532854
    125 C42        -4.0400    3.1290   -3.5940 c3        1 MOL      0.110850
    126 O17        -2.6810    3.5310   -3.8070 oh        1 MOL     -0.616011
    127 H57        -3.5990    4.1540   -1.4350 hn        1 MOL      0.353936
    128 H58        -3.6660    1.4640   -2.2750 h1        1 MOL      0.278234
    129 H59        -4.7490    3.9500   -3.5620 h1        1 MOL      0.088567
    130 H60        -4.3040    2.4690   -4.4190 h1        1 MOL      0.088567
    131 H61        -2.0980    2.7730   -3.7550 ho        1 MOL      0.371385
    132 N12        -6.5330    2.7460   -1.4450 n         1 MOL     -0.184467
    133 C43        -7.9880    2.5740   -1.1500 c3        1 MOL      0.038959
    134 C44        -8.3870    1.2420   -0.5320 c         1 MOL      0.558041
    135 O18        -9.4420    1.0460   -0.0340 o         1 MOL     -0.565124
    136 C45        -8.7420    2.7600   -2.4560 c3        1 MOL     -0.248295
    137 H62        -6.0680    3.5420   -1.0250 hn        1 MOL      0.198493
    138 H63        -8.3120    3.4120   -0.5370 h1        1 MOL      0.083405
    139 H64        -8.4780    3.6960   -2.9410 hc        1 MOL      0.080834
    140 H65        -8.5230    1.9520   -3.1620 hc        1 MOL      0.080834
    141 H66        -9.8100    2.7810   -2.2510 hc        1 MOL      0.080834
    142 N13        -7.5000    0.2400   -0.4260 n         1 MOL     -0.592838
    143 C46        -7.7700   -1.1720    0.0940 c3        1 MOL      0.536172
    144 C47        -7.0000   -1.5740    1.3360 c         1 MOL      0.466300
    145 O19        -6.1290   -0.8050    1.7310 o         1 MOL     -0.434501
    146 C48        -7.5640   -2.1910   -1.0660 c3        1 MOL     -0.432697
    147 H67        -6.6140    0.5100   -0.8200 hn        1 MOL      0.282223
    148 H68        -8.8040   -1.2080    0.4210 h1        1 MOL     -0.031344
    149 H69        -6.4860   -2.2380   -1.1900 hc        1 MOL      0.107593
    150 H70        -8.0030   -3.1330   -0.7430 hc        1 MOL      0.107593
    151 H71        -8.1250   -1.8990   -1.9480 hc        1 MOL      0.107593
    152 N14        -7.4730   -2.6460    1.9970 n         1 MOL     -0.623671
    153 C49        -6.6950   -3.1880    3.1790 c3        1 MOL      0.099542
    154 C50        -6.6490   -2.1930    4.3650 c         1 MOL      0.422033
    155 O20        -5.7160   -2.1980    5.2090 o         1 MOL     -0.498925
    156 C51        -5.3240   -3.8220    2.8310 c3        1 MOL      0.122758
    157 C52        -5.2780   -5.0050    1.8600 c3        1 MOL      0.104235
    158 C53        -3.8410   -5.6480    1.6630 c         1 MOL      0.611802
    159 O21        -3.2530   -5.5460    0.5750 o         1 MOL     -0.710586
    160 O22        -3.4620   -6.4500    2.5840 o         1 MOL     -0.710586
    161 H72        -8.1020   -3.2810    1.5060 hn        1 MOL      0.316155
    162 H73        -7.2480   -4.0140    3.6270 h1        1 MOL      0.037708
    163 H74        -4.7830   -4.1510    3.7110 hc        1 MOL     -0.032189
    164 H75        -4.8010   -2.9640    2.4020 hc        1 MOL     -0.032189
    165 H76        -5.6740   -4.6490    0.9020 hc        1 MOL     -0.058071
    166 H77        -5.8870   -5.8240    2.2370 hc        1 MOL     -0.058071
    167 N15        -7.7140   -1.3970    4.4840 n         1 MOL     -0.344412
    168 C54        -7.7820   -0.2720    5.4880 c3        1 MOL     -0.059542
    169 H78        -6.9830   -0.3890    6.2190 h1        1 MOL      0.071450
    170 H79        -7.6670    0.6820    4.9740 h1        1 MOL      0.071450
    171 H80        -8.7460   -0.2960    5.9970 h1        1 MOL      0.071450
    172 H81        -8.4650   -1.4800    3.8070 hn        1 MOL      0.254741
    173 Ca1        -0.5940   -4.9330   -0.0790 Ca        1 MOL      1.847082
    174 O23        -1.3510   -7.0680   -1.5520 oh        1 MOL     -0.904925
    175 O24         0.2070   -4.9230   -2.7050 oh        1 MOL     -0.904925
    176 H82        -1.0490   -7.3900   -2.4050 ho        1 MOL      0.436210
    177 H83        -0.2000   -4.9390   -3.5710 ho        1 MOL      0.436210
    178 H84        -2.0710   -7.6590   -1.3190 ho        1 MOL      0.436210
    179 H85         0.9600   -5.5030   -2.7810 ho        1 MOL      0.436210
    180 O25        -0.8330   -6.5810    1.8400 oh        1 MOL     -0.904925
    181 H86        -1.7930   -6.6830    1.8460 ho        1 MOL      0.436210
    182 H87        -0.5440   -7.0360    2.6290 ho        1 MOL      0.436210
    183 O26         1.8600   -6.1670   -0.8390 oh        1 MOL     -0.904925
    184 H88         1.9930   -6.9230   -0.2650 ho        1 MOL      0.436210
    185 H89         2.7510   -5.8720   -1.0510 ho        1 MOL      0.436210
    186 O27         1.8160   -4.6700    1.6000 oh        1 MOL     -0.904925
    187 H90         2.7470   -4.7240    1.8300 ho        1 MOL      0.436210
    188 H91         1.3840   -4.4580    2.4280 ho        1 MOL      0.436210
    189 O28        -1.5630   -3.1480    1.5650 oh        1 MOL     -0.904925
    190 H92        -2.3930   -2.6870    1.4250 ho        1 MOL      0.436210
    191 H93        -0.9360   -2.4570    1.7610 ho        1 MOL      0.436210
@<TRIPOS>BOND
     1    1    2 1   
     2    1    4 1   
     3    1    5 1   
     4    1    6 1   
     5    2    3 2   
     6    2    7 1   
     7    7    8 1   
     8    7   15 1   
     9    8    9 1   
    10    8   11 1   
    11    8   16 1   
    12    9   10 2   
    13    9   19 1   
    14   11   12 1   
    15   11   17 1   
    16   11   18 1   
    17   12   13 1   
    18   12   14 1   
    19   19   20 1   
    20   19   28 1   
    21   20   21 1   
    22   20   23 1   
    23   20   29 1   
    24   21   22 2   
    25   21   41 1   
    26   23   24 1   
    27   23   30 1   
    28   23   31 1   
    29   24   25 1   
    30   24   32 1   
    31   24   33 1   
    32   25   26 1   
    33   25   34 1   
    34   25   35 1   
    35   26   27 1   
    36   26   36 1   
    37   26   37 1   
    38   27   38 1   
    39   27   39 1   
    40   27   40 1   
    41   41   42 1   
    42   41   49 1   
    43   42   43 1   
    44   42   45 1   
    45   42   50 1   
    46   43   44 2   
    47   43   53 1   
    48   45   46 1   
    49   45   51 1   
    50   45   52 1   
    51   46   47 1   
    52   46   48 1   
    53   53   54 1   
    54   53   57 1   
    55   54   55 1   
    56   54   58 1   
    57   54   59 1   
    58   55   56 2   
    59   55   60 1   
    60   60   61 1   
    61   60   68 1   
    62   61   62 1   
    63   61   64 1   
    64   61   69 1   
    65   62   63 2   
    66   62   74 1   
    67   64   65 1   
    68   64   70 1   
    69   64   71 1   
    70   65   66 1   
    71   65   67 2   
    72   66   72 1   
    73   66   73 1   
    74   74   75 1   
    75   74   78 1   
    76   75   76 1   
    77   75   79 1   
    78   75   80 1   
    79   76   77 2   
    80   76   81 1   
    81   81   82 1   
    82   81   93 1   
    83   82   83 1   
    84   82   85 1   
    85   82   94 1   
    86   83   84 2   
    87   83  102 1   
    88   85   86 1   
    89   85   95 1   
    90   85   96 1   
    91   86   87 ar  
    92   86   88 ar  
    93   87   89 ar  
    94   87   97 1   
    95   88   90 ar  
    96   88   98 1   
    97   89   91 ar  
    98   89   99 1   
    99   90   91 ar  
   100   90  100 1   
   101   91   92 1   
   102   92  101 1   
   103  102  103 1   
   104  102  110 1   
   105  103  104 1   
   106  103  106 1   
   107  103  111 1   
   108  104  105 2   
   109  104  121 1   
   110  106  107 1   
   111  106  108 1   
   112  106  112 1   
   113  107  109 1   
   114  107  113 1   
   115  107  114 1   
   116  108  115 1   
   117  108  116 1   
   118  108  117 1   
   119  109  118 1   
   120  109  119 1   
   121  109  120 1   
   122  121  122 1   
   123  121  127 1   
   124  122  123 1   
   125  122  125 1   
   126  122  128 1   
   127  123  124 2   
   128  123  132 1   
   129  125  126 1   
   130  125  129 1   
   131  125  130 1   
   132  126  131 1   
   133  132  133 1   
   134  132  137 1   
   135  133  134 1   
   136  133  136 1   
   137  133  138 1   
   138  134  135 2   
   139  134  142 1   
   140  136  139 1   
   141  136  140 1   
   142  136  141 1   
   143  142  143 1   
   144  142  147 1   
   145  143  144 1   
   146  143  146 1   
   147  143  148 1   
   148  144  145 2   
   149  144  152 1   
   150  146  149 1   
   151  146  150 1   
   152  146  151 1   
   153  152  153 1   
   154  152  161 1   
   155  153  154 1   
   156  153  156 1   
   157  153  162 1   
   158  154  155 2   
   159  154  167 1   
   160  156  157 1   
   161  156  163 1   
   162  156  164 1   
   163  157  158 1   
   164  157  165 1   
   165  157  166 1   
   166  158  159 1   
   167  158  160 1   
   168  167  168 1   
   169  167  172 1   
   170  168  169 1   
   171  168  170 1   
   172  168  171 1   
   173  174  176 1   
   174  174  178 1   
   175  175  177 1   
   176  175  179 1   
   177  180  181 1   
   178  180  182 1   
   179  183  184 1   
   180  183  185 1   
   181  186  187 1   
   182  186  188 1   
   183  189  190 1   
   184  189  191 1   
@<TRIPOS>SUBSTRUCTURE
     1 MOL         1 TEMP              0 ****  ****    0 ROOT
