@<TRIPOS>MOLECULE
MOL
  182   178     1     0     0
SMALL
resp


@<TRIPOS>ATOM
      1 C1          1.7930   -5.2680    6.3520 c3        1 MOL     -0.367888
      2 C2          1.8090   -4.8130    4.8920 c         1 MOL      0.763716
      3 O1          1.1590   -5.4910    4.1060 o         1 MOL     -0.577626
      4 H1          2.6470   -5.9200    6.5390 hc        1 MOL      0.096820
      5 H2          1.8520   -4.3980    7.0060 hc        1 MOL      0.096820
      6 H3          0.8710   -5.8130    6.5540 hc        1 MOL      0.096820
      7 N1          2.4750   -3.7180    4.4910 n         1 MOL     -0.659386
      8 C3          2.6990   -3.2210    3.1450 c3        1 MOL      0.011265
      9 C4          3.3340   -4.2630    2.2160 c         1 MOL      0.475349
     10 O2          4.2980   -4.9530    2.5220 o         1 MOL     -0.496342
     11 C5          3.4410   -1.9000    3.2330 c3        1 MOL     -0.116546
     12 C6          3.4720   -1.0910    1.9720 c         1 MOL      0.671738
     13 O3          3.6520    0.1210    1.9620 o         1 MOL     -0.638219
     14 O4          3.4330   -1.6620    0.8360 o         1 MOL     -0.638219
     15 H4          2.9470   -3.2380    5.2410 hn        1 MOL      0.333339
     16 H5          1.7340   -2.9150    2.7620 h1        1 MOL      0.078527
     17 H6          4.4550   -2.0790    3.5840 hc        1 MOL      0.065605
     18 H7          2.9550   -1.2580    3.9770 hc        1 MOL      0.065605
     19 N2          2.7910   -4.4090    0.9970 n         1 MOL     -0.096311
     20 C7          3.2430   -5.2610   -0.0830 c3        1 MOL     -0.162006
     21 C8          4.6560   -4.7880   -0.6480 c         1 MOL      0.465304
     22 O5          5.5240   -5.6150   -0.9160 o         1 MOL     -0.570660
     23 C9          2.0860   -5.1920   -1.1640 c3        1 MOL     -0.042157
     24 C10         2.3080   -6.2170   -2.3050 c3        1 MOL      0.025786
     25 C11         1.1910   -6.1710   -3.3920 c3        1 MOL     -0.165309
     26 C12         1.5680   -7.3710   -4.2740 c3        1 MOL      0.190543
     27 N3          0.5530   -7.5820   -5.3450 n4        1 MOL     -0.361946
     28 H8          1.9840   -3.8340    0.8070 hn        1 MOL      0.021621
     29 H9          3.2860   -6.3070    0.2280 h1        1 MOL      0.126901
     30 H10         1.9620   -4.1530   -1.4810 hc        1 MOL      0.038478
     31 H11         1.1870   -5.4250   -0.5900 hc        1 MOL      0.038478
     32 H12         2.4150   -7.2070   -1.8400 hc        1 MOL      0.030341
     33 H13         3.2340   -6.0610   -2.8550 hc        1 MOL      0.030341
     34 H14         1.2570   -5.1860   -3.8640 hc        1 MOL      0.057641
     35 H15         0.2690   -6.3860   -2.8500 hc        1 MOL      0.057641
     36 H16         1.7660   -8.2230   -3.6270 hx        1 MOL      0.048148
     37 H17         2.5100   -7.2030   -4.8130 hx        1 MOL      0.048148
     38 H18        -0.1970   -7.9950   -4.8030 hn        1 MOL      0.270945
     39 H19         0.2680   -6.7530   -5.8570 hn        1 MOL      0.270945
     40 H20         0.9080   -8.2690   -5.9970 hn        1 MOL      0.270945
     41 N4          4.9390   -3.5260   -0.7430 n         1 MOL     -0.169820
     42 C13         6.1000   -2.9930   -1.4490 c3        1 MOL     -0.043169
     43 C14         6.9140   -1.8740   -0.7570 c         1 MOL      0.429700
     44 O6          8.0700   -1.5860   -1.1640 o         1 MOL     -0.531207
     45 C15         5.7310   -2.4710   -2.9000 c3        1 MOL     -0.221271
     46 C16         4.7110   -1.3530   -2.8340 c         1 MOL      0.690454
     47 O7          4.0990   -1.0560   -3.8630 o         1 MOL     -0.704092
     48 O8          4.4240   -0.8550   -1.6890 o         1 MOL     -0.704092
     49 H21         4.3120   -2.8080   -0.4130 hn        1 MOL      0.212671
     50 H22         6.8340   -3.7920   -1.5980 h1        1 MOL      0.123689
     51 H23         5.3110   -3.2690   -3.5140 hc        1 MOL      0.083319
     52 H24         6.5970   -2.1890   -3.4880 hc        1 MOL      0.083319
     53 N5          6.3340   -1.2940    0.2830 n         1 MOL     -0.205721
     54 C17         6.9610   -0.2290    1.1040 c3        1 MOL     -0.145940
     55 C18         6.8550    1.2270    0.5620 c         1 MOL      0.393608
     56 O9          6.8540    2.2020    1.3600 o         1 MOL     -0.505301
     57 H25         5.3750   -1.4860    0.5300 hn        1 MOL      0.094747
     58 H26         7.9980   -0.5490    1.1910 h1        1 MOL      0.114268
     59 H27         6.5620   -0.2680    2.1190 h1        1 MOL      0.114268
     60 N6          6.6850    1.3750   -0.7400 n         1 MOL     -0.093312
     61 C19         6.5520    2.6310   -1.4270 c3        1 MOL     -0.038946
     62 C20         5.2180    3.2830   -1.0760 c         1 MOL      0.350664
     63 O10         4.3080    2.6110   -0.5870 o         1 MOL     -0.420002
     64 C21         6.5910    2.4030   -2.9910 c3        1 MOL     -0.254009
     65 C22         7.9110    1.9390   -3.4390 c         1 MOL      0.623742
     66 N7          8.8410    2.8190   -3.7730 n         1 MOL     -0.759477
     67 O11         8.2600    0.7640   -3.3710 o         1 MOL     -0.474317
     68 H28         6.9650    0.6170   -1.3540 hn        1 MOL      0.198141
     69 H29         7.3660    3.3020   -1.1600 h1        1 MOL      0.064321
     70 H30         6.2700    3.3030   -3.5180 hc        1 MOL      0.067103
     71 H31         5.8910    1.6230   -3.3050 hc        1 MOL      0.067103
     72 H32         8.5440    3.7900   -3.8000 hn        1 MOL      0.356275
     73 H33         9.7800    2.5620   -4.0260 hn        1 MOL      0.356275
     74 N8          5.1470    4.5950   -1.3190 n         1 MOL     -0.135258
     75 C23         3.9410    5.3560   -1.1240 c3        1 MOL     -0.369398
     76 C24         3.2030    5.1730    0.1730 c         1 MOL      0.635778
     77 O12         3.7880    5.1780    1.2590 o         1 MOL     -0.496683
     78 H34         5.9780    5.0700   -1.6360 hn        1 MOL      0.249489
     79 H35         3.2140    5.2190   -1.9250 h1        1 MOL      0.128688
     80 H36         4.3000    6.3900   -1.0940 h1        1 MOL      0.128688
     81 N9          1.9110    5.0350    0.0230 n         1 MOL     -0.547925
     82 C25         0.9170    4.6070    1.0390 c3        1 MOL      0.120124
     83 C26         0.9760    3.1670    1.5760 c         1 MOL      0.640704
     84 O13         1.8620    2.4270    1.2060 o         1 MOL     -0.502611
     85 C27        -0.5310    4.9530    0.5590 c3        1 MOL     -0.132655
     86 C28        -0.7890    6.3910    0.1670 ca        1 MOL      0.039838
     87 C29        -0.7600    7.3220    1.1990 ca        1 MOL     -0.113062
     88 C30        -1.0860    6.7940   -1.1130 ca        1 MOL     -0.113062
     89 C31        -0.7660    8.6850    0.8890 ca        1 MOL     -0.262646
     90 C32        -1.2200    8.1520   -1.4530 ca        1 MOL     -0.262646
     91 C33        -1.0000    9.0900   -0.4470 ca        1 MOL      0.309219
     92 O14        -1.2620   10.3650   -0.7420 oh        1 MOL     -0.442103
     93 H37         1.6340    5.0310   -0.9510 hn        1 MOL      0.305938
     94 H38         1.1010    5.1960    1.9440 h1        1 MOL      0.055178
     95 H39        -1.2470    4.6170    1.3110 hc        1 MOL      0.038861
     96 H40        -0.6910    4.2530   -0.2710 hc        1 MOL      0.038861
     97 H41        -0.8470    7.0370    2.2370 ha        1 MOL      0.114104
     98 H42        -1.1790    6.0250   -1.8750 ha        1 MOL      0.114104
     99 H43        -0.6210    9.4300    1.6560 ha        1 MOL      0.160167
    100 H44        -1.4580    8.4490   -2.4640 ha        1 MOL      0.160167
    101 H45        -1.1550   10.8230    0.0920 ho        1 MOL      0.352666
    102 N10         0.0970    2.7570    2.4790 n         1 MOL     -0.608434
    103 C34        -0.2750    1.3840    2.9630 c3        1 MOL     -0.099420
    104 C35        -0.4740    0.3030    1.8130 c         1 MOL      0.315517
    105 O15         0.4810   -0.0890    1.1340 o         1 MOL     -0.280914
    106 C36         0.7300    0.9340    4.0460 c3        1 MOL      0.451239
    107 C37         0.2930   -0.1580    4.9260 c3        1 MOL     -0.090958
    108 C38         1.3600    2.0990    4.8930 c3        1 MOL     -0.491211
    109 C39        -0.7480    0.2230    6.0290 c3        1 MOL     -0.206211
    110 H46        -0.4440    3.4620    2.9660 hn        1 MOL      0.329812
    111 H47        -1.2360    1.5500    3.4580 h1        1 MOL      0.099584
    112 H48         1.5610    0.4820    3.5010 hc        1 MOL     -0.111181
    113 H49         1.0220   -0.7030    5.5300 hc        1 MOL      0.035191
    114 H50        -0.1880   -0.9570    4.3570 hc        1 MOL      0.035191
    115 H51         1.9900    1.6860    5.6870 hc        1 MOL      0.132372
    116 H52         2.0240    2.6640    4.2390 hc        1 MOL      0.132372
    117 H53         0.6000    2.7580    5.3050 hc        1 MOL      0.132372
    118 H54        -0.2400    0.8270    6.7880 hc        1 MOL      0.048955
    119 H55        -1.5480    0.7910    5.5590 hc        1 MOL      0.048955
    120 H56        -1.1640   -0.7040    6.4130 hc        1 MOL      0.048955
    121 N11        -1.6780   -0.2740    1.7750 n         1 MOL     -0.264971
    122 C40        -2.0100   -1.3750    0.8770 c3        1 MOL      0.044444
    123 C41        -3.5300   -1.4620    0.7180 c         1 MOL      0.584858
    124 O16        -4.1400   -2.3840    1.2880 o         1 MOL     -0.537248
    125 C42        -1.3790   -2.6070    1.4390 c3        1 MOL      0.032765
    126 O17        -0.0080   -2.7110    1.1120 oh        1 MOL     -0.364443
    127 H57        -2.4380    0.0710    2.3490 hn        1 MOL      0.251755
    128 H58        -1.5710   -1.2720   -0.1180 h1        1 MOL      0.008866
    129 H59        -1.8650   -3.5020    1.0540 h1        1 MOL      0.068117
    130 H60        -1.5520   -2.6440    2.5210 h1        1 MOL      0.068117
    131 H61         0.3770   -1.8350    1.0790 ho        1 MOL      0.213947
    132 N12        -4.1050   -0.4500    0.1180 n         1 MOL     -0.556721
    133 C43        -5.4730   -0.3750   -0.2060 c3        1 MOL      0.184414
    134 C44        -5.6410    0.6320   -1.3980 c         1 MOL      0.551736
    135 O18        -4.9140    1.6150   -1.4800 o         1 MOL     -0.553783
    136 C45        -6.1910    0.0500    1.1110 c3        1 MOL     -0.303189
    137 H62        -3.5370    0.2740   -0.3080 hn        1 MOL      0.251472
    138 H63        -5.7450   -1.3740   -0.5310 h1        1 MOL      0.055882
    139 H64        -5.8890    1.0640    1.3670 hc        1 MOL      0.111749
    140 H65        -7.2690   -0.0280    0.9540 hc        1 MOL      0.111749
    141 H66        -5.9900   -0.6400    1.9230 hc        1 MOL      0.111749
    142 N13        -6.7130    0.5190   -2.1550 n         1 MOL     -0.574386
    143 C46        -7.7570   -0.4350   -2.2080 c3        1 MOL      0.381663
    144 C47        -9.1570    0.2530   -2.4760 c         1 MOL      0.404360
    145 O19        -9.2470    1.2550   -3.2100 o         1 MOL     -0.530532
    146 C48        -7.4430   -1.3260   -3.3670 c3        1 MOL     -0.355733
    147 H67        -6.8740    1.2630   -2.8060 hn        1 MOL      0.321107
    148 H68        -7.8000   -0.9890   -1.2680 h1        1 MOL      0.018415
    149 H69        -6.5560   -1.8860   -3.0510 hc        1 MOL      0.093855
    150 H70        -8.2970   -1.9910   -3.3860 hc        1 MOL      0.093855
    151 H71        -7.2500   -0.7790   -4.2950 hc        1 MOL      0.093855
    152 N14       -10.2410   -0.2250   -1.8760 n         1 MOL     -0.479561
    153 C49       -10.4410   -0.8640   -0.5430 c3        1 MOL     -0.054541
    154 C50       -10.0010    0.0990    0.5780 c         1 MOL      0.345707
    155 O20        -9.6240   -0.3390    1.6750 o         1 MOL     -0.463391
    156 C51       -11.9670   -1.0360   -0.3790 c3        1 MOL      0.035980
    157 C52       -12.5300   -2.1980   -1.1410 c3        1 MOL     -0.154417
    158 C53       -14.0210   -2.3800   -0.8030 c         1 MOL      0.654718
    159 O21       -14.8980   -1.9780   -1.6140 o         1 MOL     -0.639232
    160 O22       -14.3200   -3.0130    0.2520 o         1 MOL     -0.639232
    161 H72       -11.0540    0.1140   -2.3690 hn        1 MOL      0.352951
    162 H73        -9.9020   -1.8110   -0.5900 h1        1 MOL      0.115513
    163 H74       -12.4340   -0.0810   -0.6580 hc        1 MOL      0.039994
    164 H75       -12.1770   -1.2470    0.6670 hc        1 MOL      0.039994
    165 H76       -11.9330   -3.0610   -0.8150 hc        1 MOL      0.016489
    166 H77       -12.4280   -1.9880   -2.1940 hc        1 MOL      0.016489
    167 N15       -10.2070    1.4290    0.3450 n         1 MOL     -0.238731
    168 C54        -9.8190    2.4420    1.3300 c3        1 MOL     -0.208219
    169 H78       -10.7080    2.9710    1.6760 h1        1 MOL      0.100964
    170 H79        -9.3340    1.9590    2.1780 h1        1 MOL      0.100964
    171 H80        -9.1300    3.1510    0.8720 h1        1 MOL      0.100964
    172 H81       -10.6010    1.7160   -0.5370 hn        1 MOL      0.253497
    173 Ca1         2.6720    0.5380   -0.3990 Ca        1 MOL      1.590173
    174 O23         2.5910    1.2680   -2.9690 oh        1 MOL     -0.820182
    175 H82         3.2340    0.6130   -3.2600 ho        1 MOL      0.401810
    176 H83         2.1060    1.5020   -3.7560 ho        1 MOL      0.401810
    177 O24         0.3530    1.7830   -1.3060 oh        1 MOL     -0.820182
    178 H84         0.3860    2.1540   -2.1900 ho        1 MOL      0.401810
    179 H85        -0.5720    1.7570   -1.0820 ho        1 MOL      0.401810
    180 O25         1.1320   -1.2740   -1.6010 oh        1 MOL     -0.820182
    181 H86         1.1490   -1.2480   -2.5640 ho        1 MOL      0.401810
    182 H87         0.5570   -2.0100   -1.3960 ho        1 MOL      0.401810
@<TRIPOS>BOND
     1    1    2 1   
     2    1    4 1   
     3    1    5 1   
     4    1    6 1   
     5    2    3 2   
     6    2    7 1   
     7    7    8 1   
     8    7   15 1   
     9    8    9 1   
    10    8   11 1   
    11    8   16 1   
    12    9   10 2   
    13    9   19 1   
    14   11   12 1   
    15   11   17 1   
    16   11   18 1   
    17   12   13 1   
    18   12   14 1   
    19   19   20 1   
    20   19   28 1   
    21   20   21 1   
    22   20   23 1   
    23   20   29 1   
    24   21   22 2   
    25   21   41 1   
    26   23   24 1   
    27   23   30 1   
    28   23   31 1   
    29   24   25 1   
    30   24   32 1   
    31   24   33 1   
    32   25   26 1   
    33   25   34 1   
    34   25   35 1   
    35   26   27 1   
    36   26   36 1   
    37   26   37 1   
    38   27   38 1   
    39   27   39 1   
    40   27   40 1   
    41   41   42 1   
    42   41   49 1   
    43   42   43 1   
    44   42   45 1   
    45   42   50 1   
    46   43   44 2   
    47   43   53 1   
    48   45   46 1   
    49   45   51 1   
    50   45   52 1   
    51   46   47 1   
    52   46   48 1   
    53   53   54 1   
    54   53   57 1   
    55   54   55 1   
    56   54   58 1   
    57   54   59 1   
    58   55   56 2   
    59   55   60 1   
    60   60   61 1   
    61   60   68 1   
    62   61   62 1   
    63   61   64 1   
    64   61   69 1   
    65   62   63 2   
    66   62   74 1   
    67   64   65 1   
    68   64   70 1   
    69   64   71 1   
    70   65   66 1   
    71   65   67 2   
    72   66   72 1   
    73   66   73 1   
    74   74   75 1   
    75   74   78 1   
    76   75   76 1   
    77   75   79 1   
    78   75   80 1   
    79   76   77 2   
    80   76   81 1   
    81   81   82 1   
    82   81   93 1   
    83   82   83 1   
    84   82   85 1   
    85   82   94 1   
    86   83   84 2   
    87   83  102 1   
    88   85   86 1   
    89   85   95 1   
    90   85   96 1   
    91   86   87 ar  
    92   86   88 ar  
    93   87   89 ar  
    94   87   97 1   
    95   88   90 ar  
    96   88   98 1   
    97   89   91 ar  
    98   89   99 1   
    99   90   91 ar  
   100   90  100 1   
   101   91   92 1   
   102   92  101 1   
   103  102  103 1   
   104  102  110 1   
   105  103  104 1   
   106  103  106 1   
   107  103  111 1   
   108  104  105 2   
   109  104  121 1   
   110  106  107 1   
   111  106  108 1   
   112  106  112 1   
   113  107  109 1   
   114  107  113 1   
   115  107  114 1   
   116  108  115 1   
   117  108  116 1   
   118  108  117 1   
   119  109  118 1   
   120  109  119 1   
   121  109  120 1   
   122  121  122 1   
   123  121  127 1   
   124  122  123 1   
   125  122  125 1   
   126  122  128 1   
   127  123  124 2   
   128  123  132 1   
   129  125  126 1   
   130  125  129 1   
   131  125  130 1   
   132  126  131 1   
   133  132  133 1   
   134  132  137 1   
   135  133  134 1   
   136  133  136 1   
   137  133  138 1   
   138  134  135 2   
   139  134  142 1   
   140  136  139 1   
   141  136  140 1   
   142  136  141 1   
   143  142  143 1   
   144  142  147 1   
   145  143  144 1   
   146  143  146 1   
   147  143  148 1   
   148  144  145 2   
   149  144  152 1   
   150  146  149 1   
   151  146  150 1   
   152  146  151 1   
   153  152  153 1   
   154  152  161 1   
   155  153  154 1   
   156  153  156 1   
   157  153  162 1   
   158  154  155 2   
   159  154  167 1   
   160  156  157 1   
   161  156  163 1   
   162  156  164 1   
   163  157  158 1   
   164  157  165 1   
   165  157  166 1   
   166  158  159 1   
   167  158  160 1   
   168  167  168 1   
   169  167  172 1   
   170  168  169 1   
   171  168  170 1   
   172  168  171 1   
   173  174  175 1   
   174  174  176 1   
   175  177  178 1   
   176  177  179 1   
   177  180  181 1   
   178  180  182 1   
@<TRIPOS>SUBSTRUCTURE
     1 MOL         1 TEMP              0 ****  ****    0 ROOT
