@<TRIPOS>MOLECULE
MOL
  188   182     1     0     0
SMALL
resp


@<TRIPOS>ATOM
      1 C1          4.7140   -0.0280    3.5510 c3        1 MOL     -0.361943
      2 C2          5.4170    0.2260    2.1900 c         1 MOL      0.591973
      3 O1          4.9550   -0.0590    1.1330 o         1 MOL     -0.467350
      4 H1          5.3890    0.2400    4.3650 hc        1 MOL      0.088738
      5 H2          3.8120    0.5800    3.6140 hc        1 MOL      0.088738
      6 H3          4.4490   -1.0830    3.6330 hc        1 MOL      0.088738
      7 N1          6.7050    0.6180    2.2990 n         1 MOL     -0.567712
      8 C3          7.5290    1.0120    1.1360 c3        1 MOL     -0.129618
      9 C4          7.5890   -0.0520    0.0290 c         1 MOL      0.391284
     10 O2          7.5290    0.2040   -1.1710 o         1 MOL     -0.397955
     11 C5          7.0690    2.3670    0.5460 c3        1 MOL     -0.218819
     12 C6          8.0040    3.0010   -0.5020 c         1 MOL      0.741358
     13 O3          7.5190    3.6290   -1.4250 o         1 MOL     -0.644001
     14 O4          9.2420    2.9100   -0.3390 o         1 MOL     -0.644001
     15 H4          7.0050    1.0830    3.1480 hn        1 MOL      0.359387
     16 H5          8.5170    1.1880    1.5520 h1        1 MOL      0.095486
     17 H6          7.0090    2.9550    1.4590 hc        1 MOL      0.116237
     18 H7          6.1150    2.3160    0.0380 hc        1 MOL      0.116237
     19 N2          7.6840   -1.3390    0.4750 n         1 MOL     -0.249490
     20 C7          7.6420   -2.5060   -0.4190 c3        1 MOL     -0.126267
     21 C8          6.2260   -2.8380   -1.0100 c         1 MOL      0.567755
     22 O5          6.2180   -3.6150   -1.9530 o         1 MOL     -0.546163
     23 C9          8.2360   -3.7180    0.2730 c3        1 MOL     -0.159898
     24 C10         9.7440   -3.5220    0.6400 c3        1 MOL      0.318143
     25 C11        10.4340   -4.7030    1.2660 c3        1 MOL     -0.277346
     26 C12         9.8420   -4.9350    2.6520 c3        1 MOL      0.324482
     27 N3         10.5230   -6.1230    3.2350 n4        1 MOL     -0.331903
     28 H8          7.7070   -1.4750    1.4750 hn        1 MOL      0.224981
     29 H9          8.2560   -2.3700   -1.3090 h1        1 MOL      0.141448
     30 H10         8.1570   -4.5020   -0.4840 hc        1 MOL      0.034886
     31 H11         7.7840   -3.9540    1.2380 hc        1 MOL      0.034886
     32 H12         9.8420   -2.7410    1.3940 hc        1 MOL     -0.040718
     33 H13        10.3280   -3.0470   -0.1500 hc        1 MOL     -0.040718
     34 H14        11.4860   -4.4430    1.3840 hc        1 MOL      0.076646
     35 H15        10.2340   -5.5960    0.6800 hc        1 MOL      0.076646
     36 H16         8.7610   -5.1000    2.6310 hx        1 MOL     -0.014889
     37 H17        10.0390   -4.1170    3.3520 hx        1 MOL     -0.014889
     38 H18        10.0150   -6.3750    4.0750 hn        1 MOL      0.249275
     39 H19        10.4500   -6.9670    2.6800 hn        1 MOL      0.249275
     40 H20        11.4890   -5.9260    3.4490 hn        1 MOL      0.249275
     41 N4          5.1470   -2.3960   -0.3730 n         1 MOL     -0.316642
     42 C13         3.7850   -2.7800   -0.7870 c3        1 MOL     -0.103343
     43 C14         3.3140   -1.9630   -2.0430 c         1 MOL      0.627891
     44 O6          3.7970   -0.8360   -2.3270 o         1 MOL     -0.508601
     45 C15         2.9210   -2.7510    0.4520 c3        1 MOL      0.002285
     46 C16         1.5150   -3.2330    0.2240 c         1 MOL      0.522084
     47 O7          0.5180   -2.6270    0.7120 o         1 MOL     -0.688797
     48 O8          1.2270   -4.1910   -0.5090 o         1 MOL     -0.688797
     49 H21         5.2710   -1.8720    0.4750 hn        1 MOL      0.221403
     50 H22         3.8890   -3.7950   -1.1760 h1        1 MOL      0.034915
     51 H23         2.7680   -1.7560    0.8720 hc        1 MOL      0.051981
     52 H24         3.3520   -3.3360    1.2680 hc        1 MOL      0.051981
     53 N5          2.3870   -2.6010   -2.7830 n         1 MOL     -0.436010
     54 C17         1.9370   -2.1400   -4.1120 c3        1 MOL     -0.086796
     55 C18         0.8500   -1.0420   -4.2280 c         1 MOL      0.515090
     56 O9          0.5700   -0.6440   -5.3550 o         1 MOL     -0.531473
     57 H25         1.9430   -3.3530   -2.2780 hn        1 MOL      0.296706
     58 H26         1.6290   -3.0270   -4.6720 h1        1 MOL      0.098271
     59 H27         2.8060   -1.7660   -4.6530 h1        1 MOL      0.098271
     60 N6          0.2610   -0.5140   -3.1180 n         1 MOL     -0.254988
     61 C19        -0.8220    0.4010   -3.0490 c3        1 MOL     -0.190893
     62 C20        -0.3680    1.9100   -2.8710 c         1 MOL      0.315902
     63 O10        -1.2830    2.6460   -2.5630 o         1 MOL     -0.307932
     64 C21        -1.8020   -0.0280   -1.8670 c3        1 MOL     -0.321339
     65 C22        -2.5020   -1.3570   -2.2630 c         1 MOL      0.895302
     66 N7         -3.2650   -1.3300   -3.3310 n         1 MOL     -0.726859
     67 O11        -2.2200   -2.3900   -1.6970 o         1 MOL     -0.772526
     68 H28         0.5750   -0.7460   -2.1860 hn        1 MOL      0.211924
     69 H29        -1.3670    0.3680   -3.9950 h1        1 MOL      0.121442
     70 H30        -2.6270    0.6520   -1.6940 hc        1 MOL      0.169663
     71 H31        -1.2150   -0.1920   -0.9680 hc        1 MOL      0.169663
     72 H32        -3.4740   -0.4580   -3.7990 hn        1 MOL      0.346239
     73 H33        -3.6690   -2.2300   -3.5550 hn        1 MOL      0.346239
     74 N8          0.9360    2.2330   -3.0080 n         1 MOL     -0.090152
     75 C23         1.5620    3.5420   -2.8940 c3        1 MOL     -0.283950
     76 C24         1.2990    4.2300   -1.6590 c         1 MOL      0.747168
     77 O12         1.0340    5.4410   -1.7160 o         1 MOL     -0.569444
     78 H34         1.5420    1.4500   -3.2170 hn        1 MOL      0.215101
     79 H35         1.1360    4.1800   -3.6730 h1        1 MOL      0.130185
     80 H36         2.6380    3.4270   -2.9290 h1        1 MOL      0.130185
     81 N9          1.3900    3.5540   -0.5320 n         1 MOL     -0.339393
     82 C25         1.0500    4.0360    0.8060 c3        1 MOL     -0.033515
     83 C26        -0.0000    3.0200    1.3880 c         1 MOL      0.488146
     84 O13         0.1140    1.7890    1.2570 o         1 MOL     -0.521957
     85 C27         2.2500    4.0650    1.7930 c3        1 MOL     -0.116756
     86 C28         3.1750    5.1440    1.4900 ca        1 MOL      0.068067
     87 C29         4.4930    4.9010    1.2030 ca        1 MOL     -0.238974
     88 C30         2.6500    6.4890    1.3500 ca        1 MOL     -0.238974
     89 C31         5.4370    5.9160    0.8880 ca        1 MOL     -0.185039
     90 C32         3.5870    7.4630    0.9270 ca        1 MOL     -0.185039
     91 C33         4.9650    7.2000    0.7000 ca        1 MOL      0.315191
     92 O14         5.7830    8.2130    0.2630 oh        1 MOL     -0.459741
     93 H37         1.7780    2.6200   -0.4980 hn        1 MOL      0.217714
     94 H38         0.5960    5.0240    0.8180 h1        1 MOL      0.100566
     95 H39         2.8340    3.1450    1.8180 hc        1 MOL      0.084838
     96 H40         1.9990    4.0770    2.8540 hc        1 MOL      0.084838
     97 H41         4.8420    3.8760    1.2140 ha        1 MOL      0.130060
     98 H42         1.6030    6.6830    1.5340 ha        1 MOL      0.130060
     99 H43         6.4870    5.7290    0.7160 ha        1 MOL      0.129169
    100 H44         3.2360    8.4740    0.7430 ha        1 MOL      0.129169
    101 H45         5.2480    8.9910    0.0700 ho        1 MOL      0.337892
    102 N10        -1.1120    3.5680    1.8620 n         1 MOL     -0.501978
    103 C34        -2.4060    2.7590    2.0970 c3        1 MOL      0.364701
    104 C35        -3.2640    2.7940    0.7790 c         1 MOL      0.319521
    105 O15        -3.9860    1.7860    0.5400 o         1 MOL     -0.521932
    106 C36        -3.0680    3.2830    3.3830 c3        1 MOL     -0.002903
    107 C37        -2.2630    2.9440    4.6840 c3        1 MOL      0.165021
    108 C38        -4.5470    2.8230    3.6470 c3        1 MOL     -0.300116
    109 C39        -1.8630    1.5310    4.9350 c3        1 MOL     -0.257881
    110 H46        -1.2120    4.5760    1.7610 hn        1 MOL      0.267304
    111 H47        -2.1860    1.7000    2.2820 h1        1 MOL      0.030389
    112 H48        -3.0750    4.3720    3.2650 hc        1 MOL     -0.031141
    113 H49        -2.8470    3.2940    5.5250 hc        1 MOL     -0.034667
    114 H50        -1.3510    3.5400    4.6310 hc        1 MOL     -0.034667
    115 H51        -4.9550    3.3550    4.5010 hc        1 MOL      0.087658
    116 H52        -5.1040    2.8980    2.7060 hc        1 MOL      0.087658
    117 H53        -4.4940    1.7760    3.9200 hc        1 MOL      0.087658
    118 H54        -1.1570    1.4160    5.7600 hc        1 MOL      0.068996
    119 H55        -2.7190    0.9160    5.1970 hc        1 MOL      0.068996
    120 H56        -1.2760    1.2050    4.0810 hc        1 MOL      0.068996
    121 N11        -3.2130    3.7980   -0.0810 n         1 MOL     -0.298778
    122 C40        -3.8660    3.7420   -1.3800 c3        1 MOL     -0.123904
    123 C41        -5.4300    3.8510   -1.2520 c         1 MOL      0.375083
    124 O16        -6.1260    3.5180   -2.1890 o         1 MOL     -0.486379
    125 C42        -3.4970    4.9570   -2.2140 c3        1 MOL      0.165027
    126 O17        -2.0420    5.1730   -2.0970 oh        1 MOL     -0.559322
    127 H57        -2.6040    4.5930    0.0620 hn        1 MOL      0.245528
    128 H58        -3.6580    2.8010   -1.8840 h1        1 MOL      0.104816
    129 H59        -4.0980    5.7870   -1.8420 h1        1 MOL      0.064202
    130 H60        -3.7720    4.7330   -3.2540 h1        1 MOL      0.064202
    131 H61        -1.6270    4.3130   -2.0430 ho        1 MOL      0.253601
    132 N12        -5.8730    4.1070   -0.0470 n         1 MOL     -0.241476
    133 C43        -7.2390    3.8780    0.4030 c3        1 MOL      0.070440
    134 C44        -7.7840    2.4630    0.1490 c         1 MOL      0.612811
    135 O18        -8.9920    2.3520    0.1090 o         1 MOL     -0.571529
    136 C45        -8.2270    5.0040   -0.1080 c3        1 MOL     -0.341363
    137 H62        -5.2020    4.3390    0.6710 hn        1 MOL      0.214655
    138 H63        -7.1600    3.9290    1.4870 h1        1 MOL      0.052530
    139 H64        -8.3130    4.9640   -1.1870 hc        1 MOL      0.107672
    140 H65        -9.2580    4.9720    0.2560 hc        1 MOL      0.107672
    141 H66        -7.7830    5.9750    0.1020 hc        1 MOL      0.107672
    142 N13        -7.0580    1.3910   -0.1040 n         1 MOL     -0.628310
    143 C46        -7.3570    0.0290   -0.6460 c3        1 MOL      0.604686
    144 C47        -7.1340   -1.1440    0.2950 c         1 MOL      0.281488
    145 O19        -6.2730   -1.0730    1.2440 o         1 MOL     -0.455326
    146 C48        -6.3570   -0.2520   -1.8140 c3        1 MOL     -0.209227
    147 H67        -6.0650    1.5630   -0.0060 hn        1 MOL      0.243466
    148 H68        -8.3760   -0.0550   -1.0300 h1        1 MOL     -0.042794
    149 H69        -5.3330    0.0200   -1.5720 hc        1 MOL      0.044650
    150 H70        -6.3810   -1.2870   -2.1500 hc        1 MOL      0.044650
    151 H71        -6.7410    0.3640   -2.6260 hc        1 MOL      0.044650
    152 N14        -7.8260   -2.2290    0.0070 n         1 MOL     -0.553252
    153 C49        -7.7680   -3.4570    0.8250 c3        1 MOL      0.061340
    154 C50        -8.1810   -3.3440    2.3190 c         1 MOL      0.445381
    155 O20        -7.9320   -4.2390    3.0910 o         1 MOL     -0.542271
    156 C51        -6.4160   -4.2420    0.5830 c3        1 MOL     -0.013558
    157 C52        -5.9460   -4.3250   -0.9090 c3        1 MOL     -0.050335
    158 C53        -4.9210   -5.4320   -1.0100 c         1 MOL      0.565476
    159 O21        -5.2230   -6.6680   -0.9940 o         1 MOL     -0.656550
    160 O22        -3.7760   -5.0220   -1.2570 o         1 MOL     -0.656550
    161 H72        -8.4430   -2.3030   -0.7840 hn        1 MOL      0.328276
    162 H73        -8.5690   -4.0970    0.4380 h1        1 MOL      0.066997
    163 H74        -6.5110   -5.2790    0.8900 hc        1 MOL      0.013040
    164 H75        -5.6870   -3.6700    1.1480 hc        1 MOL      0.013040
    165 H76        -5.6040   -3.3410   -1.2210 hc        1 MOL      0.011334
    166 H77        -6.7560   -4.5420   -1.6140 hc        1 MOL      0.011334
    167 N15        -8.8780   -2.3580    2.6990 n         1 MOL     -0.220952
    168 C54        -9.1410   -1.9870    4.1080 c3        1 MOL     -0.152652
    169 H78        -8.3230   -2.3410    4.7350 h1        1 MOL      0.091581
    170 H79        -9.2190   -0.9040    4.1910 h1        1 MOL      0.091581
    171 H80       -10.0750   -2.4450    4.4370 h1        1 MOL      0.091581
    172 H81        -9.1840   -1.7290    1.9660 hn        1 MOL      0.211993
    173 Ca1        -1.3960   -4.3790   -0.2200 Ca        1 MOL      1.809958
    174 O23        -0.4340   -4.6690   -2.6850 oh        1 MOL     -0.857041
    175 H82        -0.6200   -4.2940   -3.5460 ho        1 MOL      0.420584
    176 H83         0.1320   -5.4210   -2.8580 ho        1 MOL      0.420584
    177 O24        -2.6550   -2.7610    1.4430 oh        1 MOL     -0.857041
    178 H84        -2.8120   -3.3370    2.1880 ho        1 MOL      0.420584
    179 H85        -3.2670   -2.0360    1.5600 ho        1 MOL      0.420584
    180 O25         0.0960   -5.3880    1.8550 oh        1 MOL     -0.857041
    181 H86         0.0480   -6.2980    2.1320 ho        1 MOL      0.420584
    182 H87         0.5160   -4.9340    2.5800 ho        1 MOL      0.420584
    183 O26        -0.8770   -7.1160   -0.4470 oh        1 MOL     -0.857041
    184 H88        -1.0480   -7.6010    0.3620 ho        1 MOL      0.420584
    185 H89        -0.1110   -7.5520   -0.8300 ho        1 MOL      0.420584
    186 O27        -2.9140   -5.5300    1.6110 oh        1 MOL     -0.857041
    187 H90        -3.1880   -5.2810    2.4960 ho        1 MOL      0.420584
    188 H91        -3.2540   -6.4100    1.4910 ho        1 MOL      0.420584
@<TRIPOS>BOND
     1    1    2 1   
     2    1    4 1   
     3    1    5 1   
     4    1    6 1   
     5    2    3 2   
     6    2    7 1   
     7    7    8 1   
     8    7   15 1   
     9    8    9 1   
    10    8   11 1   
    11    8   16 1   
    12    9   10 2   
    13    9   19 1   
    14   11   12 1   
    15   11   17 1   
    16   11   18 1   
    17   12   13 1   
    18   12   14 1   
    19   19   20 1   
    20   19   28 1   
    21   20   21 1   
    22   20   23 1   
    23   20   29 1   
    24   21   22 2   
    25   21   41 1   
    26   23   24 1   
    27   23   30 1   
    28   23   31 1   
    29   24   25 1   
    30   24   32 1   
    31   24   33 1   
    32   25   26 1   
    33   25   34 1   
    34   25   35 1   
    35   26   27 1   
    36   26   36 1   
    37   26   37 1   
    38   27   38 1   
    39   27   39 1   
    40   27   40 1   
    41   41   42 1   
    42   41   49 1   
    43   42   43 1   
    44   42   45 1   
    45   42   50 1   
    46   43   44 2   
    47   43   53 1   
    48   45   46 1   
    49   45   51 1   
    50   45   52 1   
    51   46   47 1   
    52   46   48 1   
    53   53   54 1   
    54   53   57 1   
    55   54   55 1   
    56   54   58 1   
    57   54   59 1   
    58   55   56 2   
    59   55   60 1   
    60   60   61 1   
    61   60   68 1   
    62   61   62 1   
    63   61   64 1   
    64   61   69 1   
    65   62   63 2   
    66   62   74 1   
    67   64   65 1   
    68   64   70 1   
    69   64   71 1   
    70   65   66 1   
    71   65   67 2   
    72   66   72 1   
    73   66   73 1   
    74   74   75 1   
    75   74   78 1   
    76   75   76 1   
    77   75   79 1   
    78   75   80 1   
    79   76   77 2   
    80   76   81 1   
    81   81   82 1   
    82   81   93 1   
    83   82   83 1   
    84   82   85 1   
    85   82   94 1   
    86   83   84 2   
    87   83  102 1   
    88   85   86 1   
    89   85   95 1   
    90   85   96 1   
    91   86   87 ar  
    92   86   88 ar  
    93   87   89 ar  
    94   87   97 1   
    95   88   90 ar  
    96   88   98 1   
    97   89   91 ar  
    98   89   99 1   
    99   90   91 ar  
   100   90  100 1   
   101   91   92 1   
   102   92  101 1   
   103  102  103 1   
   104  102  110 1   
   105  103  104 1   
   106  103  106 1   
   107  103  111 1   
   108  104  105 2   
   109  104  121 1   
   110  106  107 1   
   111  106  108 1   
   112  106  112 1   
   113  107  109 1   
   114  107  113 1   
   115  107  114 1   
   116  108  115 1   
   117  108  116 1   
   118  108  117 1   
   119  109  118 1   
   120  109  119 1   
   121  109  120 1   
   122  121  122 1   
   123  121  127 1   
   124  122  123 1   
   125  122  125 1   
   126  122  128 1   
   127  123  124 2   
   128  123  132 1   
   129  125  126 1   
   130  125  129 1   
   131  125  130 1   
   132  126  131 1   
   133  132  133 1   
   134  132  137 1   
   135  133  134 1   
   136  133  136 1   
   137  133  138 1   
   138  134  135 2   
   139  134  142 1   
   140  136  139 1   
   141  136  140 1   
   142  136  141 1   
   143  142  143 1   
   144  142  147 1   
   145  143  144 1   
   146  143  146 1   
   147  143  148 1   
   148  144  145 2   
   149  144  152 1   
   150  146  149 1   
   151  146  150 1   
   152  146  151 1   
   153  152  153 1   
   154  152  161 1   
   155  153  154 1   
   156  153  156 1   
   157  153  162 1   
   158  154  155 2   
   159  154  167 1   
   160  156  157 1   
   161  156  163 1   
   162  156  164 1   
   163  157  158 1   
   164  157  165 1   
   165  157  166 1   
   166  158  159 1   
   167  158  160 1   
   168  167  168 1   
   169  167  172 1   
   170  168  169 1   
   171  168  170 1   
   172  168  171 1   
   173  174  175 1   
   174  174  176 1   
   175  177  178 1   
   176  177  179 1   
   177  180  181 1   
   178  180  182 1   
   179  183  184 1   
   180  183  185 1   
   181  186  187 1   
   182  186  188 1   
@<TRIPOS>SUBSTRUCTURE
     1 MOL         1 TEMP              0 ****  ****    0 ROOT
