@<TRIPOS>MOLECULE
MOL
  185   180     1     0     0
SMALL
resp


@<TRIPOS>ATOM
      1 C1          3.8540   -1.4260    5.9390 c3        1 MOL     -0.454493
      2 C2          3.1120   -1.1980    4.5440 c         1 MOL      0.743341
      3 O1          1.9050   -1.1140    4.5570 o         1 MOL     -0.605438
      4 H1          3.9270   -0.4770    6.4720 hc        1 MOL      0.114581
      5 H2          3.2880   -2.1370    6.5410 hc        1 MOL      0.114581
      6 H3          4.8550   -1.8180    5.7590 hc        1 MOL      0.114581
      7 N1          3.8150   -1.1370    3.3980 n         1 MOL     -0.604727
      8 C3          3.2170   -0.9890    2.0730 c3        1 MOL      0.314335
      9 C4          2.8650   -2.3510    1.3750 c         1 MOL      0.029151
     10 O2          2.2130   -2.3350    0.3080 o         1 MOL     -0.424858
     11 C5          4.1050   -0.0470    1.2240 c3        1 MOL     -0.264061
     12 C6          5.5250   -0.5450    1.1530 c         1 MOL      0.677612
     13 O3          5.7300   -1.7460    0.8260 o         1 MOL     -0.670142
     14 O4          6.4010    0.2830    1.5320 o         1 MOL     -0.670142
     15 H4          4.8110   -1.2940    3.4580 hn        1 MOL      0.330950
     16 H5          2.2600   -0.4680    2.1110 h1        1 MOL      0.031365
     17 H6          4.0410    0.9370    1.6960 hc        1 MOL      0.060084
     18 H7          3.7510    0.0540    0.2010 hc        1 MOL      0.060084
     19 N2          3.4250   -3.4110    1.8760 n         1 MOL     -0.077060
     20 C7          3.1570   -4.8000    1.3890 c3        1 MOL      0.118201
     21 C8          4.0270   -5.1150    0.1680 c         1 MOL      0.528433
     22 O5          4.6700   -6.0960    0.1160 o         1 MOL     -0.545824
     23 C9          3.4750   -5.7360    2.5570 c3        1 MOL     -0.160088
     24 C10         2.3520   -5.6710    3.5630 c3        1 MOL      0.102555
     25 C11         2.6610   -6.5310    4.7830 c3        1 MOL      0.148739
     26 C12         1.3470   -7.0690    5.4290 c3        1 MOL      0.011864
     27 N3          1.6590   -7.9810    6.6110 n4        1 MOL     -0.270928
     28 H8          4.1150   -3.2000    2.5900 hn        1 MOL      0.204280
     29 H9          2.1440   -4.9120    1.0200 h1        1 MOL      0.066571
     30 H10         4.4320   -5.4710    3.0130 hc        1 MOL      0.054655
     31 H11         3.5210   -6.7600    2.1740 hc        1 MOL      0.054655
     32 H12         1.3870   -5.9740    3.1540 hc        1 MOL     -0.029581
     33 H13         2.2400   -4.6540    3.9290 hc        1 MOL     -0.029581
     34 H14         3.0930   -5.8920    5.5580 hc        1 MOL     -0.041826
     35 H15         3.3250   -7.3630    4.5460 hc        1 MOL     -0.041826
     36 H16         0.9050   -7.6500    4.6240 hx        1 MOL      0.084993
     37 H17         0.6830   -6.2570    5.7160 hx        1 MOL      0.084993
     38 H18         0.8380   -7.9670    7.1960 hn        1 MOL      0.300927
     39 H19         1.8940   -8.9600    6.4900 hn        1 MOL      0.300927
     40 H20         2.3530   -7.5540    7.2030 hn        1 MOL      0.300927
     41 N4          4.0430   -4.1710   -0.7670 n         1 MOL     -0.274259
     42 C13         4.4340   -4.3410   -2.1870 c3        1 MOL     -0.020158
     43 C14         4.9310   -2.9920   -2.8550 c         1 MOL      0.401314
     44 O6          4.9980   -2.9090   -4.0770 o         1 MOL     -0.497942
     45 C15         3.2130   -4.9350   -2.9000 c3        1 MOL     -0.025785
     46 C16         1.9070   -4.1930   -2.6070 c         1 MOL      0.578890
     47 O7          1.1200   -4.5740   -1.7230 o         1 MOL     -0.676159
     48 O8          1.7720   -3.0690   -3.2000 o         1 MOL     -0.676159
     49 H21         3.5370   -3.3080   -0.5980 hn        1 MOL      0.059278
     50 H22         5.2010   -5.1210   -2.1970 h1        1 MOL      0.102961
     51 H23         3.0920   -5.9930   -2.7290 hc        1 MOL      0.024702
     52 H24         3.4380   -4.9190   -3.9670 hc        1 MOL      0.024702
     53 N5          5.2140   -1.9690   -1.9850 n         1 MOL     -0.226713
     54 C17         5.6190   -0.5850   -2.3840 c3        1 MOL     -0.036698
     55 C18         7.1580   -0.5000   -2.4070 c         1 MOL      0.544506
     56 O9          7.8310   -1.5130   -2.3050 o         1 MOL     -0.501429
     57 H25         5.3700   -2.1840   -1.0110 hn        1 MOL      0.240118
     58 H26         5.1810    0.1340   -1.6840 h1        1 MOL      0.061506
     59 H27         5.2310   -0.3900   -3.3820 h1        1 MOL      0.061506
     60 N6          7.7320    0.7510   -2.3210 n         1 MOL     -0.503019
     61 C19         7.1680    2.0280   -2.5510 c3        1 MOL      0.259544
     62 C20         7.1510    2.9900   -1.3380 c         1 MOL      0.610972
     63 O10         8.2080    3.5090   -0.9980 o         1 MOL     -0.582730
     64 C21         7.8180    2.6150   -3.8420 c3        1 MOL     -0.312110
     65 C22         7.0350    3.8230   -4.3070 c         1 MOL      0.729877
     66 N7          7.3360    4.4760   -5.4360 n         1 MOL     -0.840681
     67 O11         6.1030    4.1930   -3.6470 o         1 MOL     -0.573170
     68 H28         8.7420    0.7730   -2.2710 hn        1 MOL      0.287017
     69 H29         6.1120    1.8800   -2.7210 h1        1 MOL     -0.018608
     70 H30         7.8580    1.9050   -4.6730 hc        1 MOL      0.088510
     71 H31         8.8130    3.0230   -3.6550 hc        1 MOL      0.088510
     72 H32         8.1860    4.2710   -5.9420 hn        1 MOL      0.375793
     73 H33         6.7540    5.2830   -5.6180 hn        1 MOL      0.375793
     74 N8          6.1040    3.3880   -0.6190 n         1 MOL     -0.421844
     75 C23         4.6800    3.1280   -0.9180 c3        1 MOL     -0.114993
     76 C24         3.7090    3.7220    0.1440 c         1 MOL      0.680632
     77 O12         4.0750    4.2750    1.2050 o         1 MOL     -0.522654
     78 H34         6.2510    3.8080    0.3000 hn        1 MOL      0.293465
     79 H35         4.5110    2.0490   -0.8760 h1        1 MOL      0.069311
     80 H36         4.3680    3.5400   -1.8800 h1        1 MOL      0.069311
     81 N9          2.4030    3.5810   -0.1490 n         1 MOL     -0.609558
     82 C25         1.3520    4.0830    0.7050 c3        1 MOL      0.210201
     83 C26        -0.0020    3.2960    0.7600 c         1 MOL      0.592047
     84 O13        -0.2640    2.5380   -0.1810 o         1 MOL     -0.552471
     85 C27         1.0530    5.5530    0.4640 c3        1 MOL     -0.105263
     86 C28         0.3090    6.4270    1.4640 ca        1 MOL     -0.018294
     87 C29        -0.8400    7.0860    1.0570 ca        1 MOL     -0.082631
     88 C30         0.8600    6.7060    2.7300 ca        1 MOL     -0.082631
     89 C31        -1.4810    7.9550    1.9660 ca        1 MOL     -0.279845
     90 C32         0.3280    7.6620    3.5980 ca        1 MOL     -0.279845
     91 C33        -0.9190    8.2390    3.2280 ca        1 MOL      0.363993
     92 O14        -1.5000    9.1670    4.0240 oh        1 MOL     -0.509692
     93 H37         2.1360    3.0840   -0.9920 hn        1 MOL      0.300944
     94 H38         1.6570    4.1080    1.7500 h1        1 MOL      0.000803
     95 H39         0.6400    5.7370   -0.5260 hc        1 MOL      0.069842
     96 H40         2.0500    5.9630    0.3230 hc        1 MOL      0.069842
     97 H41        -1.2470    6.7890    0.0980 ha        1 MOL      0.116588
     98 H42         1.8140    6.2630    2.9720 ha        1 MOL      0.116588
     99 H43        -2.3970    8.4880    1.7450 ha        1 MOL      0.146270
    100 H44         0.7640    7.8130    4.5730 ha        1 MOL      0.146270
    101 H45        -1.1670    9.1560    4.9280 ho        1 MOL      0.379579
    102 N10        -0.8600    3.4840    1.7590 n         1 MOL     -0.572036
    103 C34        -2.2980    3.0490    1.7640 c3        1 MOL     -0.076021
    104 C35        -3.0350    3.4530    0.4580 c         1 MOL      0.551630
    105 O15        -2.7220    4.4780   -0.1560 o         1 MOL     -0.484897
    106 C36        -3.1120    3.5340    3.0220 c3        1 MOL      0.238631
    107 C37        -2.9710    2.6720    4.2420 c3        1 MOL     -0.037183
    108 C38        -2.8240    5.0050    3.3780 c3        1 MOL     -0.032983
    109 C39        -3.8810    2.9460    5.4290 c3        1 MOL     -0.104138
    110 H46        -0.5490    4.1140    2.4950 hn        1 MOL      0.313892
    111 H47        -2.2450    1.9630    1.7600 h1        1 MOL      0.040441
    112 H48        -4.1540    3.4380    2.7120 hc        1 MOL     -0.026703
    113 H49        -2.0050    2.7730    4.7510 hc        1 MOL      0.016135
    114 H50        -3.1380    1.6190    4.0140 hc        1 MOL      0.016135
    115 H51        -1.7440    5.1450    3.4590 hc        1 MOL      0.000946
    116 H52        -3.1360    5.7060    2.5970 hc        1 MOL      0.000946
    117 H53        -3.3900    5.2260    4.2800 hc        1 MOL      0.000946
    118 H54        -3.7090    3.9020    5.9240 hc        1 MOL      0.028787
    119 H55        -4.9430    2.8800    5.2030 hc        1 MOL      0.028787
    120 H56        -3.6970    2.1500    6.1590 hc        1 MOL      0.028787
    121 N11        -4.0280    2.5970    0.0760 n         1 MOL     -0.360855
    122 C40        -4.9360    2.8240   -1.0770 c3        1 MOL     -0.031946
    123 C41        -5.2230    1.4730   -1.7790 c         1 MOL      0.692442
    124 O16        -4.9810    0.4070   -1.2510 o         1 MOL     -0.471191
    125 C42        -6.1950    3.6310   -0.7170 c3        1 MOL     -0.081439
    126 O17        -7.0760    2.8220    0.0800 oh        1 MOL     -0.576878
    127 H57        -4.0440    1.7650    0.6500 hn        1 MOL      0.265666
    128 H58        -4.3200    3.3690   -1.7860 h1        1 MOL      0.072760
    129 H59        -6.6850    3.7940   -1.6770 h1        1 MOL      0.097768
    130 H60        -6.0210    4.5370   -0.1360 h1        1 MOL      0.097768
    131 H61        -7.8100    3.3970    0.2950 ho        1 MOL      0.408598
    132 N12        -5.5670    1.5300   -3.0940 n         1 MOL     -0.555145
    133 C43        -5.7560    0.4890   -4.0200 c3        1 MOL      0.023949
    134 C44        -6.8750   -0.4790   -3.6720 c         1 MOL      0.501455
    135 O18        -6.7060   -1.6940   -3.8780 o         1 MOL     -0.450145
    136 C45        -4.4080   -0.1190   -4.4800 c3        1 MOL     -0.238435
    137 H62        -5.5830    2.4020   -3.6080 hn        1 MOL      0.312318
    138 H63        -6.2020    0.9260   -4.9140 h1        1 MOL      0.076316
    139 H64        -3.8540    0.5340   -5.1570 hc        1 MOL      0.088339
    140 H65        -3.9200   -0.4990   -3.5810 hc        1 MOL      0.088339
    141 H66        -4.6610   -1.0040   -5.0590 hc        1 MOL      0.088339
    142 N13        -7.9330    0.0300   -3.0900 n         1 MOL     -0.542138
    143 C46        -9.0470   -0.7050   -2.5760 c3        1 MOL      0.366078
    144 C47        -8.6610   -1.9040   -1.7460 c         1 MOL      0.394200
    145 O19        -9.2240   -2.9970   -1.9090 o         1 MOL     -0.480791
    146 C48       -10.0680   -0.9770   -3.5610 c3        1 MOL     -0.356404
    147 H67        -7.9520    1.0190   -2.9060 hn        1 MOL      0.292628
    148 H68        -9.4450   -0.0450   -1.8030 h1        1 MOL     -0.015693
    149 H69       -10.3030   -0.0020   -3.9890 hc        1 MOL      0.096231
    150 H70        -9.7950   -1.6290   -4.3880 hc        1 MOL      0.096231
    151 H71       -11.0130   -1.2870   -3.1090 hc        1 MOL      0.096231
    152 N14        -7.6510   -1.7710   -0.9160 n         1 MOL     -0.443185
    153 C49        -6.9870   -2.9120   -0.2750 c3        1 MOL      0.086069
    154 C50        -7.7960   -3.2440    0.9710 c         1 MOL      0.421652
    155 O20        -8.1990   -4.3750    1.1700 o         1 MOL     -0.533589
    156 C51        -5.4770   -2.6870   -0.0350 c3        1 MOL     -0.039767
    157 C52        -4.6460   -2.7640   -1.2490 c3        1 MOL      0.099845
    158 C53        -3.1160   -2.5410   -0.9980 c         1 MOL      0.814997
    159 O21        -2.3650   -3.5110   -1.0500 o         1 MOL     -0.811374
    160 O22        -2.5140   -1.4530   -0.7950 o         1 MOL     -0.811374
    161 H72        -7.0850   -0.9450   -0.9980 hn        1 MOL      0.251428
    162 H73        -7.0590   -3.7470   -0.9720 h1        1 MOL      0.129854
    163 H74        -5.0740   -3.3050    0.7730 hc        1 MOL     -0.016321
    164 H75        -5.3490   -1.6510    0.2760 hc        1 MOL     -0.016321
    165 H76        -5.0030   -2.0360   -1.9830 hc        1 MOL     -0.025736
    166 H77        -4.7810   -3.7710   -1.6420 hc        1 MOL     -0.025736
    167 N15        -8.1750   -2.2620    1.7490 n         1 MOL     -0.258252
    168 C54        -9.0160   -2.3430    3.0410 c3        1 MOL     -0.116519
    169 H78        -9.3860   -3.3600    3.1700 h1        1 MOL      0.083690
    170 H79        -8.3970   -2.0720    3.8960 h1        1 MOL      0.083690
    171 H80        -9.8590   -1.6570    2.9700 h1        1 MOL      0.083690
    172 H81        -7.8150   -1.3690    1.4640 hn        1 MOL      0.200509
    173 Ca1        -0.1010   -2.1930   -1.1460 Ca        1 MOL      1.699125
    174 O23        -0.3910   -0.1630    0.5030 oh        1 MOL     -0.790791
    175 H82        -0.1870    0.7660    0.5450 ho        1 MOL      0.390179
    176 H83        -1.0240   -0.3080    1.2100 ho        1 MOL      0.390179
    177 O24        -1.3730   -1.4030   -3.8100 oh        1 MOL     -0.790791
    178 H84        -0.7400   -1.0550   -4.4350 ho        1 MOL      0.390179
    179 H85        -1.8530   -0.6260   -3.4980 ho        1 MOL      0.390179
    180 O25        -0.3920   -3.2480    1.3350 oh        1 MOL     -0.790791
    181 H86        -0.0260   -2.9290    2.1670 ho        1 MOL      0.390179
    182 H87        -1.2430   -3.6270    1.5740 ho        1 MOL      0.390179
    183 O26         1.1650    0.0470   -2.0310 oh        1 MOL     -0.790791
    184 H88         1.2660    1.0010   -1.9500 ho        1 MOL      0.390179
    185 H89         1.5910   -0.1700   -2.8590 ho        1 MOL      0.390179
@<TRIPOS>BOND
     1    1    2 1   
     2    1    4 1   
     3    1    5 1   
     4    1    6 1   
     5    2    3 2   
     6    2    7 1   
     7    7    8 1   
     8    7   15 1   
     9    8    9 1   
    10    8   11 1   
    11    8   16 1   
    12    9   10 2   
    13    9   19 1   
    14   11   12 1   
    15   11   17 1   
    16   11   18 1   
    17   12   13 1   
    18   12   14 1   
    19   19   20 1   
    20   19   28 1   
    21   20   21 1   
    22   20   23 1   
    23   20   29 1   
    24   21   22 2   
    25   21   41 1   
    26   23   24 1   
    27   23   30 1   
    28   23   31 1   
    29   24   25 1   
    30   24   32 1   
    31   24   33 1   
    32   25   26 1   
    33   25   34 1   
    34   25   35 1   
    35   26   27 1   
    36   26   36 1   
    37   26   37 1   
    38   27   38 1   
    39   27   39 1   
    40   27   40 1   
    41   41   42 1   
    42   41   49 1   
    43   42   43 1   
    44   42   45 1   
    45   42   50 1   
    46   43   44 2   
    47   43   53 1   
    48   45   46 1   
    49   45   51 1   
    50   45   52 1   
    51   46   47 1   
    52   46   48 1   
    53   53   54 1   
    54   53   57 1   
    55   54   55 1   
    56   54   58 1   
    57   54   59 1   
    58   55   56 2   
    59   55   60 1   
    60   60   61 1   
    61   60   68 1   
    62   61   62 1   
    63   61   64 1   
    64   61   69 1   
    65   62   63 2   
    66   62   74 1   
    67   64   65 1   
    68   64   70 1   
    69   64   71 1   
    70   65   66 1   
    71   65   67 2   
    72   66   72 1   
    73   66   73 1   
    74   74   75 1   
    75   74   78 1   
    76   75   76 1   
    77   75   79 1   
    78   75   80 1   
    79   76   77 2   
    80   76   81 1   
    81   81   82 1   
    82   81   93 1   
    83   82   83 1   
    84   82   85 1   
    85   82   94 1   
    86   83   84 2   
    87   83  102 1   
    88   85   86 1   
    89   85   95 1   
    90   85   96 1   
    91   86   87 ar  
    92   86   88 ar  
    93   87   89 ar  
    94   87   97 1   
    95   88   90 ar  
    96   88   98 1   
    97   89   91 ar  
    98   89   99 1   
    99   90   91 ar  
   100   90  100 1   
   101   91   92 1   
   102   92  101 1   
   103  102  103 1   
   104  102  110 1   
   105  103  104 1   
   106  103  106 1   
   107  103  111 1   
   108  104  105 2   
   109  104  121 1   
   110  106  107 1   
   111  106  108 1   
   112  106  112 1   
   113  107  109 1   
   114  107  113 1   
   115  107  114 1   
   116  108  115 1   
   117  108  116 1   
   118  108  117 1   
   119  109  118 1   
   120  109  119 1   
   121  109  120 1   
   122  121  122 1   
   123  121  127 1   
   124  122  123 1   
   125  122  125 1   
   126  122  128 1   
   127  123  124 2   
   128  123  132 1   
   129  125  126 1   
   130  125  129 1   
   131  125  130 1   
   132  126  131 1   
   133  132  133 1   
   134  132  137 1   
   135  133  134 1   
   136  133  136 1   
   137  133  138 1   
   138  134  135 2   
   139  134  142 1   
   140  136  139 1   
   141  136  140 1   
   142  136  141 1   
   143  142  143 1   
   144  142  147 1   
   145  143  144 1   
   146  143  146 1   
   147  143  148 1   
   148  144  145 2   
   149  144  152 1   
   150  146  149 1   
   151  146  150 1   
   152  146  151 1   
   153  152  153 1   
   154  152  161 1   
   155  153  154 1   
   156  153  156 1   
   157  153  162 1   
   158  154  155 2   
   159  154  167 1   
   160  156  157 1   
   161  156  163 1   
   162  156  164 1   
   163  157  158 1   
   164  157  165 1   
   165  157  166 1   
   166  158  159 1   
   167  158  160 1   
   168  167  168 1   
   169  167  172 1   
   170  168  169 1   
   171  168  170 1   
   172  168  171 1   
   173  174  175 1   
   174  174  176 1   
   175  177  178 1   
   176  177  179 1   
   177  180  181 1   
   178  180  182 1   
   179  183  184 1   
   180  183  185 1   
@<TRIPOS>SUBSTRUCTURE
     1 MOL         1 TEMP              0 ****  ****    0 ROOT
