@<TRIPOS>MOLECULE
MOL
  185   180     1     0     0
SMALL
resp


@<TRIPOS>ATOM
      1 C1          4.6660    1.8030    1.8060 c3        1 MOL     -0.383104
      2 C2          5.7630    1.8050    0.7050 c         1 MOL      0.841073
      3 O1          5.5170    1.6880   -0.4490 o         1 MOL     -0.522887
      4 H1          4.6090    0.8130    2.2590 hc        1 MOL      0.078886
      5 H2          4.9170    2.5380    2.5700 hc        1 MOL      0.078886
      6 H3          3.7030    2.0540    1.3600 hc        1 MOL      0.078886
      7 N1          6.9700    2.0530    1.1220 n         1 MOL     -0.591862
      8 C3          8.1820    1.9840    0.2440 c3        1 MOL      0.056536
      9 C4          8.2130    0.6370   -0.5850 c         1 MOL      0.452824
     10 O2          8.6020    0.6190   -1.7910 o         1 MOL     -0.497014
     11 C5          8.3760    3.2170   -0.5970 c3        1 MOL     -0.311718
     12 C6          8.0380    4.5730    0.0660 c         1 MOL      0.767050
     13 O3          7.1980    5.2790   -0.4550 o         1 MOL     -0.654467
     14 O4          8.6570    4.9650    1.0900 o         1 MOL     -0.654467
     15 H4          7.0760    2.1300    2.1150 hn        1 MOL      0.304049
     16 H5          9.0690    1.9530    0.8790 h1        1 MOL      0.071033
     17 H6          7.7590    3.0830   -1.4780 hc        1 MOL      0.093223
     18 H7          9.4030    3.2160   -0.9690 hc        1 MOL      0.093223
     19 N2          7.9590   -0.4820    0.0750 n         1 MOL     -0.299527
     20 C7          7.9080   -1.8470   -0.5170 c3        1 MOL      0.049130
     21 C8          6.5630   -2.5160   -0.7090 c         1 MOL      0.617479
     22 O5          6.5400   -3.6270   -1.2700 o         1 MOL     -0.580076
     23 C9          8.7790   -2.7740    0.3800 c3        1 MOL     -0.131600
     24 C10         8.2900   -3.0200    1.7800 c3        1 MOL      0.145926
     25 C11         9.2000   -3.8270    2.6920 c3        1 MOL     -0.062712
     26 C12         8.5150   -4.0010    4.0840 c3        1 MOL      0.071646
     27 N3          9.1940   -5.0400    4.8810 n4        1 MOL     -0.166150
     28 H8          7.7180   -0.3290    1.0370 hn        1 MOL      0.179211
     29 H9          8.3450   -1.8850   -1.5110 h1        1 MOL      0.106753
     30 H10         9.7280   -2.2300    0.4240 hc        1 MOL      0.039195
     31 H11         8.8770   -3.7430   -0.1120 hc        1 MOL      0.039195
     32 H12         7.3050   -3.4760    1.6980 hc        1 MOL     -0.027766
     33 H13         8.2610   -2.0140    2.1940 hc        1 MOL     -0.027766
     34 H14        10.1570   -3.3120    2.7490 hc        1 MOL      0.038716
     35 H15         9.2780   -4.7780    2.1690 hc        1 MOL      0.038716
     36 H16         7.4760   -4.3020    3.9160 hx        1 MOL      0.058212
     37 H17         8.4970   -3.0780    4.6580 hx        1 MOL      0.058212
     38 H18         9.9700   -4.7190    5.4420 hn        1 MOL      0.209650
     39 H19         8.5830   -5.5820    5.4750 hn        1 MOL      0.209650
     40 H20         9.4920   -5.8170    4.3180 hn        1 MOL      0.209650
     41 N4          5.4560   -1.9440   -0.2350 n         1 MOL     -0.458993
     42 C13         4.1420   -2.4630   -0.4260 c3        1 MOL      0.061680
     43 C14         3.7120   -2.2460   -1.9300 c         1 MOL      0.457499
     44 O6          3.8650   -1.0890   -2.4080 o         1 MOL     -0.441301
     45 C15         3.2030   -1.7550    0.5280 c3        1 MOL     -0.143089
     46 C16         1.7540   -2.2900    0.4870 c         1 MOL      0.676804
     47 O7          1.2050   -2.6210    1.5480 o         1 MOL     -0.694924
     48 O8          1.2790   -2.5600   -0.6280 o         1 MOL     -0.694924
     49 H21         5.5530   -1.0920    0.3000 hn        1 MOL      0.197392
     50 H22         4.1370   -3.5510   -0.3360 h1        1 MOL      0.051640
     51 H23         3.1110   -0.7450    0.1390 hc        1 MOL      0.048813
     52 H24         3.6290   -1.7170    1.5310 hc        1 MOL      0.048813
     53 N5          3.2960   -3.2360   -2.6970 n         1 MOL     -0.298220
     54 C17         2.8900   -3.0360   -4.0790 c3        1 MOL     -0.115949
     55 C18         1.7800   -2.0750   -4.2620 c         1 MOL      0.389780
     56 O9          1.5440   -1.5660   -5.4050 o         1 MOL     -0.545016
     57 H25         3.4780   -4.1350   -2.2630 hn        1 MOL      0.225139
     58 H26         2.6490   -3.9760   -4.5780 h1        1 MOL      0.111944
     59 H27         3.6820   -2.6290   -4.6970 h1        1 MOL      0.111944
     60 N6          1.0880   -1.6450   -3.2290 n         1 MOL     -0.271867
     61 C19         0.0660   -0.6010   -3.3550 c3        1 MOL      0.010082
     62 C20         0.6160    0.8450   -2.9470 c         1 MOL      0.475306
     63 O10        -0.1380    1.8350   -3.0500 o         1 MOL     -0.547534
     64 C21        -1.2550   -0.9090   -2.5810 c3        1 MOL     -0.326481
     65 C22        -1.8730   -2.2360   -2.8680 c         1 MOL      0.848591
     66 N7         -2.7260   -2.3880   -3.8470 n         1 MOL     -0.766048
     67 O11        -1.5170   -3.2120   -2.2230 o         1 MOL     -0.764341
     68 H28         1.1750   -2.2420   -2.4110 hn        1 MOL      0.308796
     69 H29        -0.2800   -0.4750   -4.3790 h1        1 MOL      0.082261
     70 H30        -1.9720   -0.0980   -2.7270 hc        1 MOL      0.084361
     71 H31        -0.8960   -0.9760   -1.5640 hc        1 MOL      0.084361
     72 H32        -2.9110   -1.5990   -4.4490 hn        1 MOL      0.371372
     73 H33        -2.9580   -3.3080   -4.1670 hn        1 MOL      0.371372
     74 N8          1.8710    0.9190   -2.5330 n         1 MOL     -0.155367
     75 C23         2.5430    2.0490   -2.0870 c3        1 MOL     -0.012991
     76 C24         1.7280    2.6550   -0.9050 c         1 MOL      0.515963
     77 O12         1.5300    2.0340    0.1000 o         1 MOL     -0.511108
     78 H34         2.3400    0.0330   -2.4580 hn        1 MOL      0.157583
     79 H35         2.7210    2.7200   -2.9250 h1        1 MOL      0.058185
     80 H36         3.4520    1.6760   -1.6160 h1        1 MOL      0.058185
     81 N9          1.3030    3.9440   -1.0480 n         1 MOL     -0.551212
     82 C25         0.4060    4.8000   -0.2730 c3        1 MOL      0.276784
     83 C26        -1.0900    4.1470   -0.0470 c         1 MOL      0.380324
     84 O13        -2.0690    4.8420   -0.2980 o         1 MOL     -0.536986
     85 C27         1.0570    5.3520    1.0150 c3        1 MOL     -0.249858
     86 C28         0.2560    6.5660    1.6140 ca        1 MOL      0.236917
     87 C29         0.1570    7.7240    0.8460 ca        1 MOL     -0.335718
     88 C30        -0.2090    6.5560    2.9780 ca        1 MOL     -0.335718
     89 C31        -0.3800    8.8840    1.3680 ca        1 MOL     -0.105421
     90 C32        -0.8670    7.7370    3.4430 ca        1 MOL     -0.105421
     91 C33        -1.0400    8.8560    2.6430 ca        1 MOL      0.224690
     92 O14        -1.4230   10.0420    3.2150 oh        1 MOL     -0.487687
     93 H37         1.5580    4.4170   -1.8980 hn        1 MOL      0.304664
     94 H38         0.1580    5.6030   -0.9640 h1        1 MOL      0.032509
     95 H39         2.0660    5.7280    0.8530 hc        1 MOL      0.103259
     96 H40         1.0770    4.5570    1.7460 hc        1 MOL      0.103259
     97 H41         0.5780    7.8900   -0.1400 ha        1 MOL      0.185056
     98 H42        -0.1780    5.6800    3.6170 ha        1 MOL      0.185056
     99 H43        -0.3230    9.8160    0.8190 ha        1 MOL      0.115130
    100 H44        -1.2810    7.8240    4.4410 ha        1 MOL      0.115130
    101 H45        -1.2820   10.0510    4.1640 ho        1 MOL      0.358370
    102 N10        -1.1620    2.8630    0.4110 n         1 MOL     -0.119988
    103 C34        -2.3510    2.0820    0.7370 c3        1 MOL     -0.130386
    104 C35        -3.2130    1.7740   -0.4660 c         1 MOL      0.382151
    105 O15        -3.4690    0.6260   -0.7700 o         1 MOL     -0.391512
    106 C36        -3.1320    2.7730    1.8870 c3        1 MOL      0.133585
    107 C37        -2.3010    3.0460    3.1260 c3        1 MOL     -0.224645
    108 C38        -4.2840    1.7720    2.2450 c3        1 MOL     -0.037553
    109 C39        -3.1440    3.7350    4.2290 c3        1 MOL     -0.054175
    110 H46        -0.3020    2.3810    0.6040 hn        1 MOL      0.193622
    111 H47        -1.9030    1.1600    1.0990 h1        1 MOL      0.121317
    112 H48        -3.6720    3.6530    1.5440 hc        1 MOL      0.036466
    113 H49        -1.4400    3.6630    2.8740 hc        1 MOL      0.057520
    114 H50        -2.0120    2.1010    3.5590 hc        1 MOL      0.057520
    115 H51        -4.9180    2.1530    3.0500 hc        1 MOL      0.013514
    116 H52        -5.0260    1.6550    1.4480 hc        1 MOL      0.013514
    117 H53        -3.8710    0.7640    2.3670 hc        1 MOL      0.013514
    118 H54        -3.9430    3.0860    4.5810 hc        1 MOL      0.019842
    119 H55        -2.5240    3.9190    5.1050 hc        1 MOL      0.019842
    120 H56        -3.6100    4.6650    3.9170 hc        1 MOL      0.019842
    121 N11        -3.6160    2.7730   -1.2930 n         1 MOL     -0.388253
    122 C40        -4.1530    2.4950   -2.6860 c3        1 MOL      0.097534
    123 C41        -5.5280    1.7890   -2.6010 c         1 MOL      0.442526
    124 O16        -5.8000    0.8770   -3.4040 o         1 MOL     -0.490593
    125 C42        -4.4120    3.8330   -3.4660 c3        1 MOL      0.223848
    126 O17        -4.7280    3.5340   -4.8380 oh        1 MOL     -0.598415
    127 H57        -3.2410    3.7010   -1.1820 hn        1 MOL      0.263053
    128 H58        -3.4640    1.8400   -3.2110 h1        1 MOL      0.085180
    129 H59        -3.4130    4.2630   -3.5120 h1        1 MOL     -0.002623
    130 H60        -4.9940    4.5390   -2.8720 h1        1 MOL     -0.002623
    131 H61        -4.8920    4.3090   -5.3790 ho        1 MOL      0.410189
    132 N12        -6.3420    2.1770   -1.5570 n         1 MOL     -0.375583
    133 C43        -7.7380    1.6270   -1.2570 c3        1 MOL      0.169245
    134 C44        -7.7900    0.1090   -1.1570 c         1 MOL      0.501302
    135 O18        -8.7850   -0.5380   -1.4200 o         1 MOL     -0.552732
    136 C45        -8.7950    2.1030   -2.3160 c3        1 MOL     -0.405918
    137 H62        -5.9330    2.8230   -0.8930 hn        1 MOL      0.219388
    138 H63        -8.0150    1.9880   -0.2660 h1        1 MOL      0.051780
    139 H64        -8.9700    3.1780   -2.3560 hc        1 MOL      0.119728
    140 H65        -8.4700    1.6930   -3.2730 hc        1 MOL      0.119728
    141 H66        -9.7260    1.6360   -2.0270 hc        1 MOL      0.119728
    142 N13        -6.7510   -0.4480   -0.6420 n         1 MOL     -0.327897
    143 C46        -6.6810   -1.8670   -0.4080 c3        1 MOL      0.251112
    144 C47        -6.2400   -2.2190    1.0700 c         1 MOL      0.336210
    145 O19        -5.3370   -1.5710    1.5590 o         1 MOL     -0.413367
    146 C48        -5.6900   -2.4510   -1.4890 c3        1 MOL     -0.168122
    147 H67        -5.9270    0.1160   -0.4930 hn        1 MOL      0.092282
    148 H68        -7.6490   -2.3390   -0.5400 h1        1 MOL     -0.006945
    149 H69        -5.5740   -3.5270   -1.4060 hc        1 MOL      0.051728
    150 H70        -6.1280   -2.2430   -2.4580 hc        1 MOL      0.051728
    151 H71        -4.7500   -1.9040   -1.4250 hc        1 MOL      0.051728
    152 N14        -6.7500   -3.3020    1.5670 n         1 MOL     -0.532644
    153 C49        -6.3900   -3.9450    2.7490 c3        1 MOL     -0.078614
    154 C50        -6.4010   -3.0450    4.0100 c         1 MOL      0.519225
    155 O20        -5.5650   -3.2460    4.8880 o         1 MOL     -0.513013
    156 C51        -5.0510   -4.6990    2.5660 c3        1 MOL     -0.031258
    157 C52        -4.9770   -5.5340    1.2950 c3        1 MOL     -0.004799
    158 C53        -3.5210   -5.9790    1.0520 c         1 MOL      0.533875
    159 O21        -2.7580   -5.3040    0.2850 o         1 MOL     -0.666438
    160 O22        -3.1950   -7.0460    1.5870 o         1 MOL     -0.666438
    161 H72        -7.4050   -3.7390    0.9330 hn        1 MOL      0.363242
    162 H73        -7.1150   -4.7390    2.9230 h1        1 MOL      0.097546
    163 H74        -4.9630   -5.3280    3.4680 hc        1 MOL      0.050129
    164 H75        -4.2710   -3.9380    2.5750 hc        1 MOL      0.050129
    165 H76        -5.4180   -4.9870    0.4600 hc        1 MOL      0.012418
    166 H77        -5.5950   -6.4250    1.2930 hc        1 MOL      0.012418
    167 N15        -7.2570   -2.0580    4.0940 n         1 MOL     -0.338498
    168 C54        -7.3060   -1.0810    5.2970 c3        1 MOL     -0.238029
    169 H78        -7.7610   -0.1420    4.9840 h1        1 MOL      0.124228
    170 H79        -7.8980   -1.5220    6.0990 h1        1 MOL      0.124228
    171 H80        -6.2930   -0.8920    5.6540 h1        1 MOL      0.124228
    172 H81        -7.9600   -1.9060    3.3760 hn        1 MOL      0.276021
    173 Ca1        -0.6600   -4.0810    0.1580 Ca        1 MOL      1.759718
    174 O23         0.8520   -5.0190   -2.0880 oh        1 MOL     -0.896207
    175 H82         0.5630   -4.8730   -2.9870 ho        1 MOL      0.438685
    176 H83         1.7040   -5.4420   -2.1730 ho        1 MOL      0.438685
    177 O24         0.7410   -6.2640    0.7450 oh        1 MOL     -0.896207
    178 H84         1.5350   -6.5400    1.2100 ho        1 MOL      0.438685
    179 H85         0.3640   -7.0670    0.3990 ho        1 MOL      0.438685
    180 O25        -1.1430   -4.3850    2.7340 oh        1 MOL     -0.896207
    181 H86        -1.5630   -5.1270    3.1790 ho        1 MOL      0.438685
    182 H87        -0.4770   -4.0820    3.3530 ho        1 MOL      0.438685
    183 O26        -2.4770   -2.2410    0.6880 oh        1 MOL     -0.896207
    184 H88        -2.8000   -1.4130    0.3500 ho        1 MOL      0.438685
    185 H89        -3.2390   -2.6550    1.0830 ho        1 MOL      0.438685
@<TRIPOS>BOND
     1    1    2 1   
     2    1    4 1   
     3    1    5 1   
     4    1    6 1   
     5    2    3 2   
     6    2    7 1   
     7    7    8 1   
     8    7   15 1   
     9    8    9 1   
    10    8   11 1   
    11    8   16 1   
    12    9   10 2   
    13    9   19 1   
    14   11   12 1   
    15   11   17 1   
    16   11   18 1   
    17   12   13 1   
    18   12   14 1   
    19   19   20 1   
    20   19   28 1   
    21   20   21 1   
    22   20   23 1   
    23   20   29 1   
    24   21   22 2   
    25   21   41 1   
    26   23   24 1   
    27   23   30 1   
    28   23   31 1   
    29   24   25 1   
    30   24   32 1   
    31   24   33 1   
    32   25   26 1   
    33   25   34 1   
    34   25   35 1   
    35   26   27 1   
    36   26   36 1   
    37   26   37 1   
    38   27   38 1   
    39   27   39 1   
    40   27   40 1   
    41   41   42 1   
    42   41   49 1   
    43   42   43 1   
    44   42   45 1   
    45   42   50 1   
    46   43   44 2   
    47   43   53 1   
    48   45   46 1   
    49   45   51 1   
    50   45   52 1   
    51   46   47 1   
    52   46   48 1   
    53   53   54 1   
    54   53   57 1   
    55   54   55 1   
    56   54   58 1   
    57   54   59 1   
    58   55   56 2   
    59   55   60 1   
    60   60   61 1   
    61   60   68 1   
    62   61   62 1   
    63   61   64 1   
    64   61   69 1   
    65   62   63 2   
    66   62   74 1   
    67   64   65 1   
    68   64   70 1   
    69   64   71 1   
    70   65   66 1   
    71   65   67 2   
    72   66   72 1   
    73   66   73 1   
    74   74   75 1   
    75   74   78 1   
    76   75   76 1   
    77   75   79 1   
    78   75   80 1   
    79   76   77 2   
    80   76   81 1   
    81   81   82 1   
    82   81   93 1   
    83   82   83 1   
    84   82   85 1   
    85   82   94 1   
    86   83   84 2   
    87   83  102 1   
    88   85   86 1   
    89   85   95 1   
    90   85   96 1   
    91   86   87 ar  
    92   86   88 ar  
    93   87   89 ar  
    94   87   97 1   
    95   88   90 ar  
    96   88   98 1   
    97   89   91 ar  
    98   89   99 1   
    99   90   91 ar  
   100   90  100 1   
   101   91   92 1   
   102   92  101 1   
   103  102  103 1   
   104  102  110 1   
   105  103  104 1   
   106  103  106 1   
   107  103  111 1   
   108  104  105 2   
   109  104  121 1   
   110  106  107 1   
   111  106  108 1   
   112  106  112 1   
   113  107  109 1   
   114  107  113 1   
   115  107  114 1   
   116  108  115 1   
   117  108  116 1   
   118  108  117 1   
   119  109  118 1   
   120  109  119 1   
   121  109  120 1   
   122  121  122 1   
   123  121  127 1   
   124  122  123 1   
   125  122  125 1   
   126  122  128 1   
   127  123  124 2   
   128  123  132 1   
   129  125  126 1   
   130  125  129 1   
   131  125  130 1   
   132  126  131 1   
   133  132  133 1   
   134  132  137 1   
   135  133  134 1   
   136  133  136 1   
   137  133  138 1   
   138  134  135 2   
   139  134  142 1   
   140  136  139 1   
   141  136  140 1   
   142  136  141 1   
   143  142  143 1   
   144  142  147 1   
   145  143  144 1   
   146  143  146 1   
   147  143  148 1   
   148  144  145 2   
   149  144  152 1   
   150  146  149 1   
   151  146  150 1   
   152  146  151 1   
   153  152  153 1   
   154  152  161 1   
   155  153  154 1   
   156  153  156 1   
   157  153  162 1   
   158  154  155 2   
   159  154  167 1   
   160  156  157 1   
   161  156  163 1   
   162  156  164 1   
   163  157  158 1   
   164  157  165 1   
   165  157  166 1   
   166  158  159 1   
   167  158  160 1   
   168  167  168 1   
   169  167  172 1   
   170  168  169 1   
   171  168  170 1   
   172  168  171 1   
   173  174  175 1   
   174  174  176 1   
   175  177  178 1   
   176  177  179 1   
   177  180  181 1   
   178  180  182 1   
   179  183  184 1   
   180  183  185 1   
@<TRIPOS>SUBSTRUCTURE
     1 MOL         1 TEMP              0 ****  ****    0 ROOT
