@<TRIPOS>MOLECULE
MOL
  195   189     1     0     0
SMALL
resp


@<TRIPOS>ATOM
      1 C1         -4.1370    5.7690    3.9990 c3        1 MOL     -0.282088
      2 C2         -3.7590    4.4600    3.2410 c         1 MOL      0.623886
      3 O1         -3.5190    3.4340    3.8690 o         1 MOL     -0.599020
      4 H1         -3.7180    6.6270    3.4730 hc        1 MOL      0.075084
      5 H2         -5.2220    5.8640    4.0420 hc        1 MOL      0.075084
      6 H3         -3.7350    5.7320    5.0110 hc        1 MOL      0.075084
      7 N1         -3.9650    4.3660    1.9370 n         1 MOL     -0.432218
      8 C3         -3.7310    3.2580    1.0600 c3        1 MOL      0.214631
      9 C4         -2.4890    3.4460    0.1910 c         1 MOL      0.586406
     10 O2         -2.2480    2.6970   -0.7630 o         1 MOL     -0.595351
     11 C5         -4.9860    3.0550    0.2070 c3        1 MOL     -0.433366
     12 C6         -5.4300    4.2490   -0.6620 c         1 MOL      0.865933
     13 O3         -6.0660    3.9930   -1.6930 o         1 MOL     -0.772973
     14 O4         -5.2500    5.4110   -0.2830 o         1 MOL     -0.772973
     15 H4         -4.3300    5.1960    1.4900 hn        1 MOL      0.286849
     16 H5         -3.5780    2.3380    1.6300 h1        1 MOL      0.002183
     17 H6         -5.7270    2.7070    0.9290 hc        1 MOL      0.079874
     18 H7         -4.8100    2.2380   -0.4850 hc        1 MOL      0.079874
     19 N2         -1.7370    4.5350    0.4330 n         1 MOL     -0.479675
     20 C7         -0.4300    4.8040   -0.1190 c3        1 MOL      0.041174
     21 C8          0.5900    4.5990    0.9650 c         1 MOL      0.736696
     22 O5          0.4720    5.1380    2.0490 o         1 MOL     -0.600352
     23 C9         -0.4090    6.2150   -0.8190 c3        1 MOL     -0.361149
     24 C10        -1.0360    6.0910   -2.2210 c3        1 MOL      0.351616
     25 C11        -0.8960    7.4010   -2.9440 c3        1 MOL     -0.052148
     26 C12        -1.5930    7.4200   -4.3060 c3        1 MOL     -0.074247
     27 N3         -3.0610    7.4840   -4.2970 n4        1 MOL     -0.440023
     28 H8         -2.1290    5.2480    1.0350 hn        1 MOL      0.239216
     29 H9         -0.1770    4.0050   -0.8180 h1        1 MOL      0.087677
     30 H10         0.6570    6.4550   -0.8440 hc        1 MOL      0.102654
     31 H11        -0.9010    6.9570   -0.1790 hc        1 MOL      0.102654
     32 H12        -2.1150    5.8950   -2.2260 hc        1 MOL     -0.043432
     33 H13        -0.5640    5.2760   -2.7780 hc        1 MOL     -0.043432
     34 H14         0.1580    7.5810   -3.1120 hc        1 MOL      0.034421
     35 H15        -1.2160    8.1740   -2.2450 hc        1 MOL      0.034421
     36 H16        -1.1460    6.5780   -4.8290 hx        1 MOL      0.110468
     37 H17        -1.2930    8.2980   -4.8650 hx        1 MOL      0.110468
     38 H18        -3.2950    7.9120   -5.1900 hn        1 MOL      0.359093
     39 H19        -3.5100    6.5780   -4.3060 hn        1 MOL      0.359093
     40 H20        -3.4320    7.8790   -3.4400 hn        1 MOL      0.359093
     41 N4          1.7140    3.9440    0.7950 n         1 MOL     -0.643045
     42 C13         2.2140    2.9430   -0.1630 c3        1 MOL      0.327553
     43 C14         2.6230    3.5520   -1.5110 c         1 MOL      0.431962
     44 O6          1.7620    4.1120   -2.2210 o         1 MOL     -0.540650
     45 C15         1.2630    1.7590   -0.2500 c3        1 MOL     -0.335484
     46 C16         0.7390    1.1180    1.0640 c         1 MOL      0.832991
     47 O7          0.9860    1.6470    2.2080 o         1 MOL     -0.738197
     48 O8          0.1110    0.0340    1.0750 o         1 MOL     -0.738197
     49 H21         2.3170    4.2130    1.5560 hn        1 MOL      0.317598
     50 H22         3.1470    2.5400    0.2480 h1        1 MOL     -0.010848
     51 H23         1.7320    0.9670   -0.8320 hc        1 MOL      0.086102
     52 H24         0.3870    1.9580   -0.8530 hc        1 MOL      0.086102
     53 N5          3.8860    3.3780   -1.9740 n         1 MOL     -0.445096
     54 C17         5.0460    2.7550   -1.3100 c3        1 MOL      0.067265
     55 C18         6.2710    2.6990   -2.3290 c         1 MOL      0.591303
     56 O9          6.1260    3.0230   -3.5220 o         1 MOL     -0.540267
     57 H25         4.0830    3.9510   -2.7790 hn        1 MOL      0.292113
     58 H26         4.8700    1.7740   -0.8550 h1        1 MOL      0.075048
     59 H27         5.3510    3.5210   -0.6040 h1        1 MOL      0.075048
     60 N6          7.4700    2.3060   -1.7870 n         1 MOL     -0.658167
     61 C19         7.8890    1.9400   -0.4430 c3        1 MOL      0.263296
     62 C20         8.6340    0.6050   -0.3110 c         1 MOL      0.450656
     63 O10         9.0530   -0.0590   -1.2360 o         1 MOL     -0.534705
     64 C21         8.7570    3.1010    0.1420 c3        1 MOL     -0.375530
     65 C22         8.8710    3.1130    1.7290 c         1 MOL      0.643535
     66 O11         8.0240    2.4350    2.3830 o         1 MOL     -0.649849
     67 O12         9.8520    3.7270    2.1890 o         1 MOL     -0.649849
     68 H28         8.2400    2.2090   -2.4240 hn        1 MOL      0.354683
     69 H29         7.0500    1.8330    0.2480 h1        1 MOL     -0.070635
     70 H30         8.2450    4.0490   -0.0330 hc        1 MOL      0.106693
     71 H31         9.6600    3.0970   -0.4620 hc        1 MOL      0.106693
     72 N7          8.7310    0.1260    0.9490 n         1 MOL     -0.130934
     73 C23         9.3610   -1.1840    1.3020 c3        1 MOL     -0.189976
     74 C24         8.4480   -2.3860    0.9160 c         1 MOL      0.582777
     75 O13         9.0240   -3.4480    0.5760 o         1 MOL     -0.552593
     76 H32         8.4080    0.7320    1.6890 hn        1 MOL      0.155643
     77 H33         9.3780   -1.3160    2.3890 h1        1 MOL      0.105803
     78 H34        10.3870   -1.3050    0.9640 h1        1 MOL      0.105803
     79 N8          7.1330   -2.2110    0.9160 n         1 MOL     -0.417997
     80 C25         6.1540   -3.1490    0.3630 c3        1 MOL      0.123521
     81 C26         4.9140   -2.3640   -0.2650 c         1 MOL      0.451187
     82 O14         4.6460   -1.2390    0.1780 o         1 MOL     -0.511123
     83 C27         5.5880   -4.1370    1.3610 c3        1 MOL      0.406624
     84 C28         6.6060   -5.0360    2.0750 c3        1 MOL     -0.412258
     85 O15         4.6440   -5.0360    0.8350 oh        1 MOL     -0.667290
     86 H35         6.7470   -1.3120    1.1580 hn        1 MOL      0.211880
     87 H36         6.5800   -3.7060   -0.4700 h1        1 MOL      0.064968
     88 H37         5.0860   -3.5350    2.1190 h1        1 MOL     -0.092262
     89 H38         4.2250   -5.5060    1.5630 ho        1 MOL      0.414273
     90 H39         6.0550   -5.7510    2.6660 hc        1 MOL      0.110724
     91 H40         7.2310   -5.5170    1.3150 hc        1 MOL      0.110724
     92 H41         7.2480   -4.3580    2.6510 hc        1 MOL      0.110724
     93 N9          4.2300   -2.9320   -1.2820 n         1 MOL     -0.381637
     94 C29         2.9310   -2.5710   -1.8660 c3        1 MOL     -0.750258
     95 C30         2.2400   -3.9380   -2.0930 c         1 MOL      0.856460
     96 O16         2.6720   -4.8100   -2.8260 o         1 MOL     -0.513144
     97 C31         3.1110   -1.8430   -3.2020 c3        1 MOL      0.364415
     98 C32         4.0750   -0.6610   -3.0630 c3        1 MOL      0.084565
     99 C33         1.6900   -1.4580   -3.7090 c3        1 MOL     -0.569697
    100 C34         4.4480   -0.2020   -4.5080 c3        1 MOL     -0.259736
    101 H42         4.6550   -3.7740   -1.6440 hn        1 MOL      0.334885
    102 H43         2.4180   -1.9290   -1.1580 h1        1 MOL      0.208824
    103 H44         3.5440   -2.6160   -3.8410 hc        1 MOL      0.033106
    104 H45         5.0420   -0.8970   -2.6090 hc        1 MOL      0.040231
    105 H46         3.5840    0.2040   -2.6090 hc        1 MOL      0.040231
    106 H47         1.0590   -2.3450   -3.7340 hc        1 MOL      0.135698
    107 H48         1.1830   -0.6980   -3.1130 hc        1 MOL      0.135698
    108 H49         1.7020   -1.1290   -4.7480 hc        1 MOL      0.135698
    109 H50         3.6190    0.2900   -4.9990 hc        1 MOL      0.056375
    110 H51         5.2530    0.5400   -4.4420 hc        1 MOL      0.056375
    111 H52         4.6400   -1.1530   -5.0100 hc        1 MOL      0.056375
    112 N10         1.0060   -4.0320   -1.4140 n         1 MOL     -0.536651
    113 C35         0.1560   -5.2560   -1.5260 c3        1 MOL     -0.074482
    114 C36        -1.2250   -4.9210   -2.1020 c         1 MOL      0.419485
    115 O17        -1.8890   -5.7600   -2.7000 o         1 MOL     -0.510158
    116 C37        -0.0220   -5.8880   -0.1170 c3        1 MOL      0.289397
    117 C38        -0.5430   -4.9660    0.9780 c3        1 MOL     -0.211976
    118 O18         1.2670   -6.2750    0.3090 oh        1 MOL     -0.648581
    119 H53         0.6980   -3.1950   -0.9200 hn        1 MOL      0.405711
    120 H54         0.7270   -5.9640   -2.1360 h1        1 MOL      0.157972
    121 H55        -0.6520   -6.7770   -0.1520 h1        1 MOL      0.038837
    122 H56         1.1880   -6.7850    1.1120 ho        1 MOL      0.419792
    123 H57         0.0090   -4.9960    1.9230 hc        1 MOL      0.044823
    124 H58        -0.6250   -3.9310    0.6360 hc        1 MOL      0.044823
    125 H59        -1.5840   -5.1570    1.2300 hc        1 MOL      0.044823
    126 N11        -1.7180   -3.6910   -2.0110 n         1 MOL     -0.215279
    127 C39        -3.1280   -3.3300   -2.3590 c3        1 MOL      0.007922
    128 C40        -4.1810   -3.9540   -1.4870 c         1 MOL      0.374567
    129 O19        -4.0210   -5.0590   -0.8610 o         1 MOL     -0.473511
    130 C41        -3.4790   -3.4550   -3.8420 c3        1 MOL      0.336886
    131 C42        -2.5050   -2.6990   -4.7250 c3        1 MOL     -0.472249
    132 O20        -4.7640   -2.8980   -4.1860 oh        1 MOL     -0.629448
    133 H60        -1.1190   -2.9510   -1.6750 hn        1 MOL      0.182224
    134 H61        -3.3100   -2.2640   -2.1740 h1        1 MOL      0.081302
    135 H62        -3.5320   -4.5000   -4.1410 h1        1 MOL      0.050698
    136 H63        -5.3490   -3.6120   -4.4440 ho        1 MOL      0.380671
    137 H64        -2.7650   -2.7100   -5.7830 hc        1 MOL      0.128555
    138 H65        -2.4460   -1.6370   -4.4590 hc        1 MOL      0.128555
    139 H66        -1.5110   -3.1350   -4.5980 hc        1 MOL      0.128555
    140 N12        -5.3170   -3.3190   -1.4470 n         1 MOL     -0.296639
    141 C43        -6.4410   -3.7000   -0.5430 c3        1 MOL     -0.059581
    142 C44        -6.3100   -3.0650    0.8580 c         1 MOL      0.524801
    143 O21        -7.0470   -3.4320    1.7380 o         1 MOL     -0.536736
    144 C45        -7.7110   -3.2250   -1.2380 c3        1 MOL     -0.075151
    145 C46        -7.9210   -1.7260   -1.6050 c3        1 MOL      0.199195
    146 C47        -9.2930   -1.5850   -2.2860 c3        1 MOL      0.185242
    147 C48        -9.6110   -0.1600   -2.6780 c3        1 MOL     -0.108085
    148 N13        -8.6200    0.5430   -3.5800 n4        1 MOL     -0.308311
    149 H67        -5.2780   -2.4420   -1.9540 hn        1 MOL      0.240988
    150 H68        -6.4590   -4.7750   -0.3950 h1        1 MOL      0.147393
    151 H69        -8.5150   -3.6010   -0.6070 hc        1 MOL      0.029639
    152 H70        -7.7710   -3.7650   -2.1830 hc        1 MOL      0.029639
    153 H71        -7.2600   -1.3520   -2.3890 hc        1 MOL     -0.071444
    154 H72        -7.8620   -1.1740   -0.6730 hc        1 MOL     -0.071444
    155 H73       -10.1600   -1.9490   -1.7230 hc        1 MOL     -0.027755
    156 H74        -9.2850   -2.1950   -3.1920 hc        1 MOL     -0.027755
    157 H75        -9.8740    0.4440   -1.8110 hx        1 MOL      0.116080
    158 H76       -10.4550   -0.1200   -3.3720 hx        1 MOL      0.116080
    159 H77        -9.0670    1.3680   -3.9510 hn        1 MOL      0.315680
    160 H78        -7.8130    0.8550   -3.0670 hn        1 MOL      0.315680
    161 H79        -8.4130    0.0090   -4.4140 hn        1 MOL      0.315680
    162 N14        -5.5660   -1.9990    1.0630 n         1 MOL     -0.268538
    163 C49        -5.3970   -1.2410    2.2810 c3        1 MOL     -0.312261
    164 C50        -6.6510   -0.3860    2.6790 c         1 MOL      0.387477
    165 O22        -6.5530    0.8240    2.7780 o         1 MOL     -0.462468
    166 C51        -4.0970   -0.4310    2.4030 c3        1 MOL      0.694034
    167 C52        -2.7910   -1.2020    2.2780 c3        1 MOL     -0.371675
    168 C53        -2.4120   -2.0150    3.4990 c         1 MOL      0.833670
    169 O23        -3.2950   -2.4370    4.2960 o         1 MOL     -0.765406
    170 O24        -1.1740   -2.2830    3.7960 o         1 MOL     -0.765406
    171 H80        -4.9760   -1.7220    0.2910 hn        1 MOL      0.177163
    172 H81        -5.3160   -1.8300    3.1830 h1        1 MOL      0.201303
    173 H82        -4.0600    0.0670    3.3740 hc        1 MOL     -0.104470
    174 H83        -3.9310    0.3160    1.6230 hc        1 MOL     -0.104470
    175 H84        -1.9860   -0.5100    2.0580 hc        1 MOL      0.018097
    176 H85        -2.9410   -1.8180    1.3920 hc        1 MOL      0.018097
    177 N15        -7.8220   -0.9180    2.9340 n         1 MOL     -0.228514
    178 C54        -8.9550   -0.1090    3.3700 c3        1 MOL     -0.075845
    179 H86        -9.0550   -0.1790    4.4530 h1        1 MOL      0.060603
    180 H87        -8.7890    0.9310    3.0880 h1        1 MOL      0.060603
    181 H88        -9.8660   -0.4740    2.8970 h1        1 MOL      0.060603
    182 H89        -7.9480   -1.9070    2.7620 hn        1 MOL      0.227965
    183 Ca1         0.7620   -0.5690    3.5220 Ca        1 MOL      1.776466
    184 O25         1.5370   -2.2990    1.5680 oh        1 MOL     -0.920700
    185 H90         1.8740   -3.0240    2.0950 ho        1 MOL      0.443166
    186 H91         1.8940   -2.4380    0.6920 ho        1 MOL      0.443166
    187 O26        -0.1980   -0.9630    6.1030 oh        1 MOL     -0.920700
    188 H92        -1.0610   -1.3280    5.9220 ho        1 MOL      0.443166
    189 H93         0.0580   -1.3380    6.9470 ho        1 MOL      0.443166
    190 O27        -1.2000    1.2100    4.3680 oh        1 MOL     -0.920700
    191 H94        -1.5670    2.0850    4.2580 ho        1 MOL      0.443166
    192 H95        -1.6550    0.8560    5.1230 ho        1 MOL      0.443166
    193 O28         3.4070   -0.1850    2.4680 oh        1 MOL     -0.920700
    194 H96         4.2160    0.2760    2.6990 ho        1 MOL      0.443166
    195 H97         3.5910   -0.5800    1.6180 ho        1 MOL      0.443166
@<TRIPOS>BOND
     1    1    2 1   
     2    1    4 1   
     3    1    5 1   
     4    1    6 1   
     5    2    3 2   
     6    2    7 1   
     7    7    8 1   
     8    7   15 1   
     9    8    9 1   
    10    8   11 1   
    11    8   16 1   
    12    9   10 2   
    13    9   19 1   
    14   11   12 1   
    15   11   17 1   
    16   11   18 1   
    17   12   13 1   
    18   12   14 1   
    19   19   20 1   
    20   19   28 1   
    21   20   21 1   
    22   20   23 1   
    23   20   29 1   
    24   21   22 2   
    25   21   41 1   
    26   23   24 1   
    27   23   30 1   
    28   23   31 1   
    29   24   25 1   
    30   24   32 1   
    31   24   33 1   
    32   25   26 1   
    33   25   34 1   
    34   25   35 1   
    35   26   27 1   
    36   26   36 1   
    37   26   37 1   
    38   27   38 1   
    39   27   39 1   
    40   27   40 1   
    41   41   42 1   
    42   41   49 1   
    43   42   43 1   
    44   42   45 1   
    45   42   50 1   
    46   43   44 2   
    47   43   53 1   
    48   45   46 1   
    49   45   51 1   
    50   45   52 1   
    51   46   47 1   
    52   46   48 1   
    53   53   54 1   
    54   53   57 1   
    55   54   55 1   
    56   54   58 1   
    57   54   59 1   
    58   55   56 2   
    59   55   60 1   
    60   60   61 1   
    61   60   68 1   
    62   61   62 1   
    63   61   64 1   
    64   61   69 1   
    65   62   63 2   
    66   62   72 1   
    67   64   65 1   
    68   64   70 1   
    69   64   71 1   
    70   65   66 1   
    71   65   67 1   
    72   72   73 1   
    73   72   76 1   
    74   73   74 1   
    75   73   77 1   
    76   73   78 1   
    77   74   75 2   
    78   74   79 1   
    79   79   80 1   
    80   79   86 1   
    81   80   81 1   
    82   80   83 1   
    83   80   87 1   
    84   81   82 2   
    85   81   93 1   
    86   83   84 1   
    87   83   85 1   
    88   83   88 1   
    89   84   90 1   
    90   84   91 1   
    91   84   92 1   
    92   85   89 1   
    93   93   94 1   
    94   93  101 1   
    95   94   95 1   
    96   94   97 1   
    97   94  102 1   
    98   95   96 2   
    99   95  112 1   
   100   97   98 1   
   101   97   99 1   
   102   97  103 1   
   103   98  100 1   
   104   98  104 1   
   105   98  105 1   
   106   99  106 1   
   107   99  107 1   
   108   99  108 1   
   109  100  109 1   
   110  100  110 1   
   111  100  111 1   
   112  112  113 1   
   113  112  119 1   
   114  113  114 1   
   115  113  116 1   
   116  113  120 1   
   117  114  115 2   
   118  114  126 1   
   119  116  117 1   
   120  116  118 1   
   121  116  121 1   
   122  117  123 1   
   123  117  124 1   
   124  117  125 1   
   125  118  122 1   
   126  126  127 1   
   127  126  133 1   
   128  127  128 1   
   129  127  130 1   
   130  127  134 1   
   131  128  129 2   
   132  128  140 1   
   133  130  131 1   
   134  130  132 1   
   135  130  135 1   
   136  131  137 1   
   137  131  138 1   
   138  131  139 1   
   139  132  136 1   
   140  140  141 1   
   141  140  149 1   
   142  141  142 1   
   143  141  144 1   
   144  141  150 1   
   145  142  143 2   
   146  142  162 1   
   147  144  145 1   
   148  144  151 1   
   149  144  152 1   
   150  145  146 1   
   151  145  153 1   
   152  145  154 1   
   153  146  147 1   
   154  146  155 1   
   155  146  156 1   
   156  147  148 1   
   157  147  157 1   
   158  147  158 1   
   159  148  159 1   
   160  148  160 1   
   161  148  161 1   
   162  162  163 1   
   163  162  171 1   
   164  163  164 1   
   165  163  166 1   
   166  163  172 1   
   167  164  165 2   
   168  164  177 1   
   169  166  167 1   
   170  166  173 1   
   171  166  174 1   
   172  167  168 1   
   173  167  175 1   
   174  167  176 1   
   175  168  169 1   
   176  168  170 1   
   177  177  178 1   
   178  177  182 1   
   179  178  179 1   
   180  178  180 1   
   181  178  181 1   
   182  184  185 1   
   183  184  186 1   
   184  187  188 1   
   185  187  189 1   
   186  190  191 1   
   187  190  192 1   
   188  193  194 1   
   189  193  195 1   
@<TRIPOS>SUBSTRUCTURE
     1 MOL         1 TEMP              0 ****  ****    0 ROOT
