@<TRIPOS>MOLECULE
MOL
  195   189     1     0     0
SMALL
resp


@<TRIPOS>ATOM
      1 C1         -3.5190   -5.5660   -3.2520 c3        1 MOL     -0.445525
      2 C2         -4.0470   -4.9090   -1.9310 c         1 MOL      0.839184
      3 O1         -3.2430   -4.3180   -1.2010 o         1 MOL     -0.674889
      4 H1         -3.9250   -6.5730   -3.3440 hc        1 MOL      0.107091
      5 H2         -3.8340   -4.9680   -4.1070 hc        1 MOL      0.107091
      6 H3         -2.4300   -5.6150   -3.2240 hc        1 MOL      0.107091
      7 N1         -5.3550   -5.0940   -1.5260 n         1 MOL     -0.741641
      8 C3         -6.0010   -4.2790   -0.4920 c3        1 MOL      0.423584
      9 C4         -5.8470   -2.7520   -0.6980 c         1 MOL      0.081821
     10 O2         -5.7630   -1.9340    0.2710 o         1 MOL     -0.444510
     11 C5         -5.6710   -4.7810    0.9360 c3        1 MOL     -0.278968
     12 C6         -4.2130   -4.8850    1.4390 c         1 MOL      0.721607
     13 O3         -3.5320   -3.8680    1.6940 o         1 MOL     -0.687087
     14 O4         -3.8560   -6.0410    1.7720 o         1 MOL     -0.687087
     15 H4         -5.9480   -5.6870   -2.0880 hn        1 MOL      0.326167
     16 H5         -7.0690   -4.4710   -0.5890 h1        1 MOL      0.047520
     17 H6         -6.1850   -5.7360    0.9600 hc        1 MOL      0.070840
     18 H7         -6.1950   -4.1280    1.6360 hc        1 MOL      0.070840
     19 N2         -5.9000   -2.3360   -1.9520 n         1 MOL     -0.092039
     20 C7         -5.9240   -0.9360   -2.4160 c3        1 MOL     -0.061059
     21 C8         -7.1350   -0.1130   -1.9560 c         1 MOL      0.414829
     22 O5         -7.9470    0.2850   -2.7790 o         1 MOL     -0.544434
     23 C9         -4.5000   -0.2690   -2.4050 c3        1 MOL     -0.001064
     24 C10        -4.5810    1.1730   -3.0180 c3        1 MOL      0.250950
     25 C11        -3.3810   -1.0690   -3.0360 c3        1 MOL     -0.135979
     26 C12        -3.2740    1.9820   -3.1510 c3        1 MOL     -0.309532
     27 H8         -5.9520   -3.0830   -2.6340 hn        1 MOL      0.167663
     28 H9         -6.1410   -1.1340   -3.4750 h1        1 MOL      0.059493
     29 H10        -4.1260   -0.1230   -1.3940 hc        1 MOL     -0.037985
     30 H11        -5.3110    1.7300   -2.4400 hc        1 MOL     -0.055264
     31 H12        -5.0340    1.0510   -4.0010 hc        1 MOL     -0.055264
     32 H13        -2.3820   -0.6600   -2.8530 hc        1 MOL      0.031856
     33 H14        -3.4170   -2.1370   -2.8490 hc        1 MOL      0.031856
     34 H15        -3.4140   -0.9910   -4.1200 hc        1 MOL      0.031856
     35 H16        -3.4540    3.0240   -3.3830 hc        1 MOL      0.074809
     36 H17        -2.6690    1.8810   -2.2490 hc        1 MOL      0.074809
     37 H18        -2.6840    1.5090   -3.9440 hc        1 MOL      0.074809
     38 N3         -7.2640    0.1640   -0.6180 n         1 MOL     -0.281516
     39 C13        -8.3770    1.0870   -0.2050 c3        1 MOL      0.197788
     40 C14        -8.0170    2.5750   -0.1260 c         1 MOL      0.570044
     41 O6         -8.8000    3.2940   -0.6980 o         1 MOL     -0.603568
     42 C15        -8.9210    0.6640    1.0960 c3        1 MOL     -0.328284
     43 C16        -9.3070   -0.8070    1.1560 c         1 MOL      0.727420
     44 O7         -9.8720   -1.3550    0.1760 o         1 MOL     -0.733271
     45 O8         -9.1950   -1.5040    2.2270 o         1 MOL     -0.733271
     46 H19        -6.6300   -0.2930    0.0350 hn        1 MOL      0.358642
     47 H20        -9.2170    1.0400   -0.8990 h1        1 MOL      0.046255
     48 H21        -9.8030    1.2830    1.2950 hc        1 MOL      0.061128
     49 H22        -8.2210    0.9130    1.8920 hc        1 MOL      0.061128
     50 N4         -6.8700    3.0870    0.3600 n         1 MOL     -0.524015
     51 C17        -5.9020    2.4040    1.2050 c3        1 MOL      0.055407
     52 C18        -5.9920    2.5080    2.7070 c         1 MOL      0.581519
     53 O9         -7.1140    2.6090    3.2670 o         1 MOL     -0.573344
     54 H23        -6.7710    4.0960    0.2760 hn        1 MOL      0.301284
     55 H24        -4.9300    2.7970    0.9120 h1        1 MOL      0.024090
     56 H25        -5.8110    1.3410    0.9830 h1        1 MOL      0.024090
     57 N5         -4.9650    2.6270    3.5550 n         1 MOL     -0.482906
     58 C19        -3.5540    2.5170    3.2040 c3        1 MOL      0.137947
     59 C20        -3.1410    1.1430    2.5630 c         1 MOL      0.646252
     60 O10        -3.7270    0.1160    2.6380 o         1 MOL     -0.559346
     61 C21        -2.7520    2.6710    4.4530 c3        1 MOL     -0.438930
     62 C22        -3.2080    3.9030    5.3120 c         1 MOL      0.785008
     63 O11        -3.9890    3.7090    6.2570 o         1 MOL     -0.728215
     64 O12        -2.7520    5.0280    5.1010 o         1 MOL     -0.728215
     65 H26        -5.2320    2.7210    4.5300 hn        1 MOL      0.311395
     66 H27        -3.2020    3.3540    2.6000 h1        1 MOL      0.031630
     67 H28        -1.6960    2.8740    4.3110 hc        1 MOL      0.086018
     68 H29        -2.8950    1.7350    4.9900 hc        1 MOL      0.086018
     69 N6         -2.0320    1.1140    1.8600 n         1 MOL     -0.628352
     70 C23        -0.9880    2.2040    1.5520 c3        1 MOL      0.132282
     71 C24        -1.3900    3.1420    0.4590 c         1 MOL      0.527624
     72 O13        -2.5830    3.3380    0.2250 o         1 MOL     -0.488476
     73 H30        -1.8040    0.1870    1.5290 hn        1 MOL      0.414616
     74 H31         0.0210    1.8290    1.3560 h1        1 MOL      0.017967
     75 H32        -0.7510    2.6550    2.5180 h1        1 MOL      0.017967
     76 N7         -0.4110    3.7360   -0.2390 n         1 MOL     -0.549334
     77 C25        -0.5960    4.6400   -1.4060 c3        1 MOL      0.138186
     78 C26         0.3910    4.2310   -2.5560 c         1 MOL      0.367333
     79 O14         0.7620    5.0710   -3.3920 o         1 MOL     -0.544322
     80 C27        -0.3520    6.0530   -0.8770 c3        1 MOL      0.004930
     81 C28        -1.4290    6.5730    0.0150 c3        1 MOL     -0.225111
     82 C29        -1.4450    8.1540   -0.0130 c         1 MOL      0.657774
     83 N8         -2.4970    8.6940    0.5410 n         1 MOL     -0.752667
     84 O15        -0.6530    8.9380   -0.5100 o         1 MOL     -0.571695
     85 H33         0.4820    3.6140    0.2230 hn        1 MOL      0.282222
     86 H34        -1.6290    4.5280   -1.7360 h1        1 MOL      0.076776
     87 H35        -0.2700    6.7870   -1.6760 hc        1 MOL      0.024960
     88 H36         0.6660    6.1120   -0.4850 hc        1 MOL      0.024960
     89 H37        -1.3230    6.1940    1.0330 hc        1 MOL      0.097088
     90 H38        -2.3850    6.2630   -0.4120 hc        1 MOL      0.097088
     91 H39        -3.2970    8.1860    0.8760 hn        1 MOL      0.345782
     92 H40        -2.6000    9.6830    0.3680 hn        1 MOL      0.345782
     93 N9          1.0370    3.0860   -2.5170 n         1 MOL     -0.183392
     94 C30         2.1530    2.7660   -3.3480 c3        1 MOL     -0.066540
     95 C31         3.5060    2.8940   -2.6200 c         1 MOL      0.599347
     96 O16         3.5830    2.4060   -1.4920 o         1 MOL     -0.560579
     97 C32         1.9760    1.3250   -4.0000 c3        1 MOL      0.255051
     98 C33         3.1940    0.8740   -4.8900 c3        1 MOL     -0.196492
     99 C34         0.7490    1.1580   -4.7900 c3        1 MOL     -0.196492
    100 H41         0.8020    2.3970   -1.8150 hn        1 MOL      0.205259
    101 H42         2.1040    3.3760   -4.2520 h1        1 MOL      0.060872
    102 H43         1.9750    0.5210   -3.2700 hc        1 MOL     -0.018727
    103 H44         4.1870    0.8750   -4.4510 hc        1 MOL      0.030469
    104 H45         3.0640   -0.1490   -5.2460 hc        1 MOL      0.030469
    105 H46         3.2760    1.5690   -5.7240 hc        1 MOL      0.030469
    106 H47         0.5330    2.0290   -5.4040 hc        1 MOL      0.030469
    107 H48         0.8150    0.3360   -5.4970 hc        1 MOL      0.030469
    108 H49        -0.0900    0.9590   -4.1150 hc        1 MOL      0.030469
    109 N10         4.4960    3.5030   -3.2400 n         1 MOL     -0.488008
    110 C35         5.7980    3.8620   -2.6750 c3        1 MOL      0.370881
    111 C36         6.6490    2.7300   -2.0850 c         1 MOL      0.348580
    112 O17         7.8140    2.5670   -2.4270 o         1 MOL     -0.554069
    113 C37         5.6690    5.1770   -1.8800 c3        1 MOL     -0.695159
    114 C38         7.0150    5.6540   -1.2570 c         1 MOL      0.805379
    115 N11         8.0980    5.7440   -2.0280 n         1 MOL     -0.867076
    116 O18         7.1740    5.6550   -0.0350 o         1 MOL     -0.567705
    117 H50         4.2070    4.0010   -4.0760 hn        1 MOL      0.293660
    118 H51         6.3710    4.1060   -3.5720 h1        1 MOL     -0.023940
    119 H52         4.9440    4.9290   -1.0980 hc        1 MOL      0.202257
    120 H53         5.1270    5.9200   -2.4560 hc        1 MOL      0.202257
    121 H54         8.0010    5.3360   -2.9490 hn        1 MOL      0.386119
    122 H55         9.0390    5.8510   -1.6870 hn        1 MOL      0.386119
    123 N12         6.2240    2.0700   -1.0340 n         1 MOL     -0.317286
    124 C39         6.8030    1.1160   -0.1770 c3        1 MOL      0.431644
    125 C40         5.9870   -0.1490    0.0180 c         1 MOL      0.302781
    126 O19         4.7100   -0.1570    0.0270 o         1 MOL     -0.464929
    127 C41         7.0780    1.8170    1.1010 c3        1 MOL     -0.407087
    128 C42         7.6810    1.0400    2.2270 ca        1 MOL      0.006939
    129 C43         6.7720    0.2570    3.0080 ca        1 MOL     -0.097006
    130 C44         9.0620    1.3410    2.6030 ca        1 MOL     -0.097006
    131 C45         7.2930   -0.2300    4.1940 ca        1 MOL     -0.345408
    132 C46         9.5070    0.6880    3.7380 ca        1 MOL     -0.345408
    133 C47         8.6060    0.0260    4.6380 ca        1 MOL      0.480196
    134 O20         8.9420   -0.4460    5.8040 oh        1 MOL     -0.572377
    135 H56         5.2760    2.3150   -0.7780 hn        1 MOL      0.214388
    136 H57         7.7630    0.8360   -0.6070 h1        1 MOL     -0.019823
    137 H58         6.0830    2.2050    1.3390 hc        1 MOL      0.153785
    138 H59         7.7110    2.6460    0.8000 hc        1 MOL      0.153785
    139 H60         5.7860   -0.0420    2.6690 ha        1 MOL      0.129718
    140 H61         9.7020    1.9190    1.9520 ha        1 MOL      0.129718
    141 H62         6.6510   -0.8380    4.8160 ha        1 MOL      0.148855
    142 H63        10.5300    0.7430    4.0800 ha        1 MOL      0.148855
    143 H64         8.2990   -1.0450    6.1740 ho        1 MOL      0.444197
    144 N13         6.6530   -1.3180    0.1240 n         1 MOL     -0.570518
    145 C48         6.1220   -2.6640    0.5090 c3        1 MOL      0.321497
    146 C49         4.6590   -2.9800    0.0450 c         1 MOL      0.664645
    147 O21         3.7110   -3.1190    0.7940 o         1 MOL     -0.570495
    148 C50         6.3040   -2.9180    2.0200 c3        1 MOL     -0.125529
    149 C51         6.1700   -4.4350    2.3370 c3        1 MOL     -0.559270
    150 C52         6.5490   -4.7110    3.7480 c         1 MOL      0.848589
    151 O22         5.7680   -5.3130    4.5400 o         1 MOL     -0.762627
    152 O23         7.6780   -4.4610    4.2050 o         1 MOL     -0.762627
    153 H65         7.6500   -1.2210    0.0730 hn        1 MOL      0.287554
    154 H66         6.7360   -3.3900   -0.0160 h1        1 MOL      0.006121
    155 H67         5.6480   -2.3670    2.6980 hc        1 MOL      0.100405
    156 H68         7.3040   -2.5290    2.2380 hc        1 MOL      0.100405
    157 H69         6.8290   -5.0200    1.6970 hc        1 MOL      0.128199
    158 H70         5.1110   -4.6910    2.2710 hc        1 MOL      0.128199
    159 N14         4.6030   -3.3260   -1.2360 n         1 MOL     -0.752230
    160 C53         3.3690   -3.8060   -1.9680 c3        1 MOL      0.114628
    161 C54         3.7060   -4.8780   -2.9980 c         1 MOL      0.448913
    162 O24         2.8860   -5.6490   -3.3800 o         1 MOL     -0.504944
    163 C55         2.6660   -2.6160   -2.5160 c3        1 MOL      0.001167
    164 C56         1.2540   -2.9660   -3.1190 c3        1 MOL      0.040764
    165 C57         0.2760   -3.2960   -1.9700 c         1 MOL      0.799495
    166 O25         0.0600   -4.4410   -1.5330 o         1 MOL     -0.788975
    167 O26        -0.2380   -2.3050   -1.4290 o         1 MOL     -0.788975
    168 H71         5.3550   -2.9430   -1.7980 hn        1 MOL      0.311901
    169 H72         2.6480   -4.2850   -1.3140 h1        1 MOL      0.147713
    170 H73         3.3510   -2.2180   -3.2660 hc        1 MOL      0.023871
    171 H74         2.6060   -1.8570   -1.7430 hc        1 MOL      0.023871
    172 H75         1.2490   -3.6830   -3.9480 hc        1 MOL     -0.024677
    173 H76         0.9250   -2.1120   -3.6930 hc        1 MOL     -0.024677
    174 N15         4.9860   -5.1610   -3.2160 n         1 MOL     -0.253781
    175 C58         5.4530   -6.2380   -4.0880 c3        1 MOL     -0.264892
    176 H77         4.7520   -7.0720   -4.0420 h1        1 MOL      0.110732
    177 H78         5.5180   -5.8740   -5.1130 h1        1 MOL      0.110732
    178 H79         6.4360   -6.5730   -3.7580 h1        1 MOL      0.110732
    179 H80         5.7060   -4.5670   -2.8200 hn        1 MOL      0.219320
    180 Ca1        -1.1370   -3.5810    0.6770 Ca        1 MOL      1.772725
    181 O27        -2.7600   -1.4070    0.4210 oh        1 MOL     -0.826702
    182 H81        -3.0440   -1.1250   -0.4520 ho        1 MOL      0.405160
    183 H82        -3.5760   -1.6270    0.8840 ho        1 MOL      0.405160
    184 O28         1.3620   -4.3860    1.2190 oh        1 MOL     -0.826702
    185 H83         1.6480   -4.9320    1.9560 ho        1 MOL      0.405160
    186 H84         2.0730   -3.7730    1.0890 ho        1 MOL      0.405160
    187 O29        -0.0290   -1.2280    1.6420 oh        1 MOL     -0.826702
    188 H85         0.0630   -0.8210    2.5030 ho        1 MOL      0.405160
    189 H86         0.7280   -0.9000    1.1520 ho        1 MOL      0.405160
    190 O30        -1.1310   -6.3560    0.8750 oh        1 MOL     -0.826702
    191 H87        -1.7710   -7.0090    0.6280 ho        1 MOL      0.405160
    192 H88        -0.3630   -6.5420    0.3320 ho        1 MOL      0.405160
    193 O31        -1.2230   -3.6710    3.2650 oh        1 MOL     -0.826702
    194 H89        -1.2090   -2.8760    3.8120 ho        1 MOL      0.405160
    195 H90        -2.0480   -4.1080    3.4920 ho        1 MOL      0.405160
@<TRIPOS>BOND
     1    1    2 1   
     2    1    4 1   
     3    1    5 1   
     4    1    6 1   
     5    2    3 2   
     6    2    7 1   
     7    7    8 1   
     8    7   15 1   
     9    8    9 1   
    10    8   11 1   
    11    8   16 1   
    12    9   10 2   
    13    9   19 1   
    14   11   12 1   
    15   11   17 1   
    16   11   18 1   
    17   12   13 1   
    18   12   14 1   
    19   19   20 1   
    20   19   27 1   
    21   20   21 1   
    22   20   23 1   
    23   20   28 1   
    24   21   22 2   
    25   21   38 1   
    26   23   24 1   
    27   23   25 1   
    28   23   29 1   
    29   24   26 1   
    30   24   30 1   
    31   24   31 1   
    32   25   32 1   
    33   25   33 1   
    34   25   34 1   
    35   26   35 1   
    36   26   36 1   
    37   26   37 1   
    38   38   39 1   
    39   38   46 1   
    40   39   40 1   
    41   39   42 1   
    42   39   47 1   
    43   40   41 2   
    44   40   50 1   
    45   42   43 1   
    46   42   48 1   
    47   42   49 1   
    48   43   44 1   
    49   43   45 1   
    50   50   51 1   
    51   50   54 1   
    52   51   52 1   
    53   51   55 1   
    54   51   56 1   
    55   52   53 2   
    56   52   57 1   
    57   57   58 1   
    58   57   65 1   
    59   58   59 1   
    60   58   61 1   
    61   58   66 1   
    62   59   60 2   
    63   59   69 1   
    64   61   62 1   
    65   61   67 1   
    66   61   68 1   
    67   62   63 1   
    68   62   64 1   
    69   69   70 1   
    70   69   73 1   
    71   70   71 1   
    72   70   74 1   
    73   70   75 1   
    74   71   72 2   
    75   71   76 1   
    76   76   77 1   
    77   76   85 1   
    78   77   78 1   
    79   77   80 1   
    80   77   86 1   
    81   78   79 2   
    82   78   93 1   
    83   80   81 1   
    84   80   87 1   
    85   80   88 1   
    86   81   82 1   
    87   81   89 1   
    88   81   90 1   
    89   82   83 1   
    90   82   84 2   
    91   83   91 1   
    92   83   92 1   
    93   93   94 1   
    94   93  100 1   
    95   94   95 1   
    96   94   97 1   
    97   94  101 1   
    98   95   96 2   
    99   95  109 1   
   100   97   98 1   
   101   97   99 1   
   102   97  102 1   
   103   98  103 1   
   104   98  104 1   
   105   98  105 1   
   106   99  106 1   
   107   99  107 1   
   108   99  108 1   
   109  109  110 1   
   110  109  117 1   
   111  110  111 1   
   112  110  113 1   
   113  110  118 1   
   114  111  112 2   
   115  111  123 1   
   116  113  114 1   
   117  113  119 1   
   118  113  120 1   
   119  114  115 1   
   120  114  116 2   
   121  115  121 1   
   122  115  122 1   
   123  123  124 1   
   124  123  135 1   
   125  124  125 1   
   126  124  127 1   
   127  124  136 1   
   128  125  126 2   
   129  125  144 1   
   130  127  128 1   
   131  127  137 1   
   132  127  138 1   
   133  128  129 ar  
   134  128  130 ar  
   135  129  131 ar  
   136  129  139 1   
   137  130  132 ar  
   138  130  140 1   
   139  131  133 ar  
   140  131  141 1   
   141  132  133 ar  
   142  132  142 1   
   143  133  134 1   
   144  134  143 1   
   145  144  145 1   
   146  144  153 1   
   147  145  146 1   
   148  145  148 1   
   149  145  154 1   
   150  146  147 2   
   151  146  159 1   
   152  148  149 1   
   153  148  155 1   
   154  148  156 1   
   155  149  150 1   
   156  149  157 1   
   157  149  158 1   
   158  150  151 1   
   159  150  152 1   
   160  159  160 1   
   161  159  168 1   
   162  160  161 1   
   163  160  163 1   
   164  160  169 1   
   165  161  162 2   
   166  161  174 1   
   167  163  164 1   
   168  163  170 1   
   169  163  171 1   
   170  164  165 1   
   171  164  172 1   
   172  164  173 1   
   173  165  166 1   
   174  165  167 1   
   175  174  175 1   
   176  174  179 1   
   177  175  176 1   
   178  175  177 1   
   179  175  178 1   
   180  181  182 1   
   181  181  183 1   
   182  184  185 1   
   183  184  186 1   
   184  187  188 1   
   185  187  189 1   
   186  190  191 1   
   187  190  192 1   
   188  193  194 1   
   189  193  195 1   
@<TRIPOS>SUBSTRUCTURE
     1 MOL         1 TEMP              0 ****  ****    0 ROOT
