@<TRIPOS>MOLECULE
MOL
  192   187     1     0     0
SMALL
resp


@<TRIPOS>ATOM
      1 C1          4.8120    3.9190   -3.8430 c3        1 MOL     -0.424495
      2 C2          5.5400    3.0670   -2.7300 c         1 MOL      0.804336
      3 O1          4.9230    2.9140   -1.6690 o         1 MOL     -0.651149
      4 H1          4.8230    4.9720   -3.5590 hc        1 MOL      0.112243
      5 H2          5.3290    3.7940   -4.7940 hc        1 MOL      0.112243
      6 H3          3.7810    3.5830   -3.9430 hc        1 MOL      0.112243
      7 N1          6.7130    2.4150   -2.9420 n         1 MOL     -0.787930
      8 C3          7.2440    1.5180   -1.9340 c3        1 MOL      0.245819
      9 C4          6.1580    0.4560   -1.6510 c         1 MOL      0.439865
     10 O2          5.7350    0.3280   -0.5260 o         1 MOL     -0.470760
     11 C5          8.0070    2.0910   -0.7410 c3        1 MOL      0.005493
     12 C6          7.4570    3.3690   -0.1530 c         1 MOL      0.752597
     13 O3          6.4740    3.3150    0.5870 o         1 MOL     -0.743673
     14 O4          8.0950    4.4540   -0.2760 o         1 MOL     -0.743673
     15 H4          7.2670    2.5190   -3.7730 hn        1 MOL      0.366975
     16 H5          7.9440    0.8360   -2.4080 h1        1 MOL      0.021305
     17 H6          9.0260    2.2940   -1.0610 hc        1 MOL     -0.027856
     18 H7          8.0310    1.2820   -0.0240 hc        1 MOL     -0.027856
     19 N2          5.6910   -0.1490   -2.7340 n         1 MOL     -0.484668
     20 C7          4.9180   -1.3810   -2.7800 c3        1 MOL      0.124955
     21 C8          5.4770   -2.6360   -2.1510 c         1 MOL      0.385096
     22 O5          5.8670   -3.5860   -2.8470 o         1 MOL     -0.539874
     23 C9          3.4870   -1.1440   -2.5210 c3        1 MOL      0.438781
     24 C10         2.5990   -2.3740   -2.9150 c3        1 MOL     -0.148127
     25 C11         3.0120    0.2140   -3.1140 c3        1 MOL     -0.266969
     26 C12         2.4740   -2.7460   -4.4330 c3        1 MOL     -0.309705
     27 H8          5.9010    0.2020   -3.6590 hn        1 MOL      0.288754
     28 H9          4.9030   -1.6800   -3.8230 h1        1 MOL     -0.012291
     29 H10         3.3700   -1.0960   -1.4430 hc        1 MOL     -0.342039
     30 H11         1.6280   -2.0820   -2.5040 hc        1 MOL      0.117735
     31 H12         3.0220   -3.2630   -2.4260 hc        1 MOL      0.117735
     32 H13         3.4550    1.0870   -2.6250 hc        1 MOL      0.047680
     33 H14         3.1240    0.1500   -4.1910 hc        1 MOL      0.047680
     34 H15         1.9680    0.3490   -2.8250 hc        1 MOL      0.047680
     35 H16         2.0830   -1.8930   -4.9950 hc        1 MOL      0.068101
     36 H17         3.4000   -3.1230   -4.8660 hc        1 MOL      0.068101
     37 H18         1.6750   -3.4600   -4.6230 hc        1 MOL      0.068101
     38 N3          5.7000   -2.5560   -0.8240 n         1 MOL      0.014107
     39 C13         6.4780   -3.6150   -0.1000 c3        1 MOL     -0.202841
     40 C14         5.6490   -4.9120    0.1930 c         1 MOL      0.545829
     41 O6          6.1110   -6.0880    0.0530 o         1 MOL     -0.579753
     42 C15         7.1780   -3.0840    1.2020 c3        1 MOL     -0.010222
     43 C16         8.1960   -1.9660    0.8740 c         1 MOL      0.664942
     44 O7          8.1470   -0.8860    1.5440 o         1 MOL     -0.680142
     45 O8          9.1270   -2.3390    0.1000 o         1 MOL     -0.680142
     46 H19         5.4720   -1.7060   -0.3310 hn        1 MOL      0.081780
     47 H20         7.2440   -3.9360   -0.8100 h1        1 MOL      0.097146
     48 H21         7.6830   -3.9300    1.6690 hc        1 MOL      0.027402
     49 H22         6.4170   -2.8400    1.9490 hc        1 MOL      0.027402
     50 N4          4.3880   -4.9040    0.6850 n         1 MOL     -0.493750
     51 C17         3.5240   -3.8250    1.1220 c3        1 MOL      0.335246
     52 C18         2.5090   -4.1590    2.3040 c         1 MOL      0.595265
     53 O9          2.1820   -5.3530    2.3620 o         1 MOL     -0.579306
     54 H23         3.9130   -5.7950    0.7440 hn        1 MOL      0.282299
     55 H24         2.9620   -3.4750    0.2500 h1        1 MOL     -0.098307
     56 H25         4.1420   -3.0430    1.5660 h1        1 MOL     -0.098307
     57 N5          1.9820   -3.1230    3.0760 n         1 MOL     -0.473392
     58 C19         2.3440   -1.7310    3.0980 c3        1 MOL      0.060753
     59 C20         2.3870   -1.0830    1.6260 c         1 MOL      0.250057
     60 O10         3.4100   -0.5450    1.2980 o         1 MOL     -0.438702
     61 C21         3.6670   -1.5790    3.9170 c3        1 MOL     -0.600554
     62 C22         3.8040   -2.3140    5.2650 c         1 MOL      0.799861
     63 O11         2.9460   -2.1610    6.1240 o         1 MOL     -0.733442
     64 O12         4.8670   -2.9040    5.5040 o         1 MOL     -0.733442
     65 H26         1.2540   -3.4170    3.7130 hn        1 MOL      0.283213
     66 H27         1.5660   -1.1110    3.5330 h1        1 MOL      0.111600
     67 H28         3.6980   -0.5170    4.1580 hc        1 MOL      0.211514
     68 H29         4.4770   -1.9120    3.2530 hc        1 MOL      0.211514
     69 N6          1.3040   -0.9970    0.8430 n         1 MOL     -0.113043
     70 C23        -0.0790   -1.3250    1.1590 c3        1 MOL     -0.181761
     71 C24        -0.5750   -2.6850    0.5640 c         1 MOL      0.424358
     72 O13         0.0480   -3.1580   -0.3930 o         1 MOL     -0.523559
     73 H30         1.5170   -0.5760   -0.0470 hn        1 MOL      0.335386
     74 H31        -0.6740   -0.5090    0.7550 h1        1 MOL      0.085104
     75 H32        -0.2180   -1.3300    2.2350 h1        1 MOL      0.085104
     76 N7         -1.7480   -3.2050    0.9970 n         1 MOL     -0.335443
     77 C25        -2.2920   -4.4720    0.4320 c3        1 MOL      0.031141
     78 C26        -2.9480   -4.2680   -0.9770 c         1 MOL      0.379085
     79 O14        -3.4280   -5.3060   -1.4780 o         1 MOL     -0.508712
     80 C27        -3.2540   -5.1550    1.4270 c3        1 MOL     -0.168812
     81 C28        -4.2590   -4.2670    2.1840 c3        1 MOL     -0.069962
     82 C29        -5.3670   -3.7890    1.2290 c         1 MOL      0.765733
     83 N8         -6.2910   -4.6490    0.9060 n         1 MOL     -0.755877
     84 O15        -5.3110   -2.7370    0.5960 o         1 MOL     -0.698714
     85 H33        -2.1420   -2.6480    1.7420 hn        1 MOL      0.276024
     86 H34        -1.4450   -5.1300    0.2470 h1        1 MOL      0.151044
     87 H35        -2.5400   -5.5550    2.1400 hc        1 MOL      0.063835
     88 H36        -3.7940   -5.9530    0.9180 hc        1 MOL      0.063835
     89 H37        -3.7720   -3.3740    2.5950 hc        1 MOL      0.022789
     90 H38        -4.8880   -4.7050    2.9630 hc        1 MOL      0.022789
     91 H39        -6.0930   -5.5970    1.1630 hn        1 MOL      0.354592
     92 H40        -6.8000   -4.4690    0.0560 hn        1 MOL      0.354592
     93 N9         -3.1120   -3.0140   -1.5210 n         1 MOL     -0.005115
     94 C30        -3.5120   -2.7490   -2.8380 c3        1 MOL     -0.320635
     95 C31        -4.7760   -1.9380   -3.0320 c         1 MOL      0.632256
     96 O16        -5.2070   -1.7440   -4.1720 o         1 MOL     -0.586491
     97 C32        -2.3940   -2.0450   -3.6070 c3        1 MOL      0.294871
     98 C33        -1.1080   -2.9040   -3.8470 c3        1 MOL     -0.203957
     99 C34        -1.9890   -0.7510   -3.0230 c3        1 MOL     -0.203957
    100 H41        -2.7150   -2.2250   -1.0390 hn        1 MOL      0.097002
    101 H42        -3.6970   -3.6680   -3.3800 h1        1 MOL      0.122044
    102 H43        -2.8060   -1.7870   -4.5740 hc        1 MOL     -0.030462
    103 H44        -1.3590   -3.9600   -3.7300 hc        1 MOL      0.045414
    104 H45        -0.7660   -2.6940   -4.8640 hc        1 MOL      0.045414
    105 H46        -0.3370   -2.6420   -3.1250 hc        1 MOL      0.045414
    106 H47        -1.4500   -0.9220   -2.0870 hc        1 MOL      0.045414
    107 H48        -1.2370   -0.3460   -3.6990 hc        1 MOL      0.045414
    108 H49        -2.8570   -0.1480   -2.7690 hc        1 MOL      0.045414
    109 N10        -5.4670   -1.5120   -1.9740 n         1 MOL     -0.342506
    110 C35        -6.7740   -0.7790   -1.9910 c3        1 MOL      0.013037
    111 C36        -6.7480    0.6720   -1.2660 c         1 MOL      0.478785
    112 O17        -7.7400    1.4100   -1.4320 o         1 MOL     -0.561515
    113 C37        -7.8960   -1.6420   -1.3550 c3        1 MOL     -0.105090
    114 C38        -8.0330   -3.0460   -2.0550 c         1 MOL      0.557271
    115 N11        -8.4220   -2.9790   -3.3430 n         1 MOL     -0.767506
    116 O18        -7.8230   -4.0980   -1.5450 o         1 MOL     -0.505593
    117 H50        -5.1690   -1.7950   -1.0450 hn        1 MOL      0.271342
    118 H51        -7.0020   -0.5870   -3.0420 h1        1 MOL      0.065980
    119 H52        -8.8950   -1.2320   -1.4430 hc        1 MOL      0.074310
    120 H53        -7.7380   -1.8440   -0.2850 hc        1 MOL      0.074310
    121 H54        -8.5650   -2.1310   -3.8770 hn        1 MOL      0.357674
    122 H55        -8.4340   -3.8340   -3.8770 hn        1 MOL      0.357674
    123 N12        -5.8100    0.9270   -0.3920 n         1 MOL     -0.401326
    124 C39        -5.7420    2.1560    0.4740 c3        1 MOL      0.245743
    125 C40        -4.3160    2.8020    0.5100 c         1 MOL      0.198291
    126 O19        -3.3260    2.1280    0.3550 o         1 MOL     -0.387519
    127 C41        -6.1430    1.6790    1.9020 c3        1 MOL     -0.014171
    128 C42        -7.4140    0.7870    2.0500 ca        1 MOL     -0.087257
    129 C43        -8.7450    1.4060    1.9720 ca        1 MOL     -0.107011
    130 C44        -7.2760   -0.5970    2.0800 ca        1 MOL     -0.107011
    131 C45        -9.8500    0.5090    2.0370 ca        1 MOL     -0.233353
    132 C46        -8.3870   -1.4470    2.1600 ca        1 MOL     -0.233353
    133 C47        -9.6330   -0.8820    2.2280 ca        1 MOL      0.333532
    134 O20       -10.6560   -1.7090    2.6170 oh        1 MOL     -0.537611
    135 H56        -5.2220    0.1350   -0.2190 hn        1 MOL      0.223159
    136 H57        -6.5180    2.8930    0.2540 h1        1 MOL      0.022701
    137 H58        -6.2070    2.5360    2.5670 hc        1 MOL      0.047549
    138 H59        -5.2960    1.0530    2.1910 hc        1 MOL      0.047549
    139 H60        -8.8500    2.4860    1.8990 ha        1 MOL      0.136561
    140 H61        -6.3440   -1.1310    2.1640 ha        1 MOL      0.136561
    141 H62       -10.8560    0.9040    1.9650 ha        1 MOL      0.114630
    142 H63        -8.2670   -2.5110    2.2690 ha        1 MOL      0.114630
    143 H64       -11.5360   -1.3380    2.6960 ho        1 MOL      0.383042
    144 N13        -4.3310    4.1070    0.6870 n         1 MOL     -0.273750
    145 C48        -3.2310    5.0490    0.9590 c3        1 MOL     -0.200085
    146 C49        -2.1990    5.2500   -0.2010 c         1 MOL      0.661104
    147 O21        -1.8240    6.3530   -0.5240 o         1 MOL     -0.552913
    148 C50        -2.5710    4.6890    2.2990 c3        1 MOL      0.120454
    149 C51        -3.4190    4.8650    3.5260 c3        1 MOL     -0.128075
    150 C52        -3.0540    6.1270    4.3400 c         1 MOL      0.675853
    151 O22        -2.8270    7.2850    3.8470 o         1 MOL     -0.723328
    152 O23        -3.1030    6.0140    5.5960 o         1 MOL     -0.723328
    153 H65        -5.2700    4.4560    0.5660 hn        1 MOL      0.275551
    154 H66        -3.6830    6.0370    1.0350 h1        1 MOL      0.087997
    155 H67        -1.6550    5.2700    2.3600 hc        1 MOL      0.006229
    156 H68        -2.0890    3.7170    2.1870 hc        1 MOL      0.006229
    157 H69        -3.3590    4.0300    4.2190 hc        1 MOL     -0.006050
    158 H70        -4.4830    4.9090    3.2830 hc        1 MOL     -0.006050
    159 N14        -1.7700    4.1740   -0.8520 n         1 MOL     -0.500878
    160 C53        -0.7920    4.2330   -1.9560 c3        1 MOL     -0.232067
    161 C54        -1.1670    5.0260   -3.1730 c         1 MOL      0.540822
    162 O24        -0.3400    5.2580   -4.0470 o         1 MOL     -0.552354
    163 C55        -0.3720    2.8390   -2.3600 c3        1 MOL      0.017429
    164 C56        -0.0200    1.7960   -1.2090 c3        1 MOL      0.549629
    165 C57         1.1080    2.2980   -0.2680 c         1 MOL      0.355634
    166 O25         2.2360    1.7520   -0.3010 o         1 MOL     -0.573694
    167 O26         0.9530    3.2620    0.4810 o         1 MOL     -0.573694
    168 H71        -2.1320    3.3070   -0.5050 hn        1 MOL      0.292385
    169 H72         0.0330    4.8220   -1.5520 h1        1 MOL      0.201164
    170 H73         0.4700    2.8980   -3.0500 hc        1 MOL      0.008242
    171 H74        -1.0990    2.3590   -3.0060 hc        1 MOL      0.008242
    172 H75         0.2590    0.9190   -1.7970 hc        1 MOL     -0.191255
    173 H76        -0.8620    1.4650   -0.6030 hc        1 MOL     -0.191255
    174 N15        -2.3900    5.5920   -3.2110 n         1 MOL     -0.287842
    175 C58        -2.9380    6.3980   -4.3450 c3        1 MOL     -0.114926
    176 H77        -2.9950    7.4460   -4.0510 h1        1 MOL      0.070886
    177 H78        -2.2820    6.2990   -5.2110 h1        1 MOL      0.070886
    178 H79        -3.9350    6.0370   -4.6000 h1        1 MOL      0.070886
    179 H80        -2.8280    5.5830   -2.3060 hn        1 MOL      0.221953
    180 Ca1         4.3330    1.9480    1.0000 Ca        1 MOL      1.708280
    181 O27         2.1950    2.0840    2.9510 oh        1 MOL     -0.825257
    182 H81         1.8960    2.3070    3.8300 ho        1 MOL      0.397695
    183 H82         1.6690    2.6520    2.3780 ho        1 MOL      0.397695
    184 O28         5.8830    0.1690    2.2550 oh        1 MOL     -0.825257
    185 H83         5.9160   -0.3060    3.0920 ho        1 MOL      0.397695
    186 H84         6.5660   -0.2480    1.7230 ho        1 MOL      0.397695
    187 O29         3.5850    4.5070    1.4020 oh        1 MOL     -0.825257
    188 H85         4.2430    5.1160    1.0620 ho        1 MOL      0.397695
    189 H86         2.7700    5.0130    1.4050 ho        1 MOL      0.397695
    190 O30         5.2530    2.8320    3.6410 oh        1 MOL     -0.825257
    191 H87         5.8110    3.5880    3.4370 ho        1 MOL      0.397695
    192 H88         4.5910    3.1860    4.2320 ho        1 MOL      0.397695
@<TRIPOS>BOND
     1    1    2 1   
     2    1    4 1   
     3    1    5 1   
     4    1    6 1   
     5    2    3 2   
     6    2    7 1   
     7    7    8 1   
     8    7   15 1   
     9    8    9 1   
    10    8   11 1   
    11    8   16 1   
    12    9   10 2   
    13    9   19 1   
    14   11   12 1   
    15   11   17 1   
    16   11   18 1   
    17   12   13 1   
    18   12   14 1   
    19   19   20 1   
    20   19   27 1   
    21   20   21 1   
    22   20   23 1   
    23   20   28 1   
    24   21   22 2   
    25   21   38 1   
    26   23   24 1   
    27   23   25 1   
    28   23   29 1   
    29   24   26 1   
    30   24   30 1   
    31   24   31 1   
    32   25   32 1   
    33   25   33 1   
    34   25   34 1   
    35   26   35 1   
    36   26   36 1   
    37   26   37 1   
    38   38   39 1   
    39   38   46 1   
    40   39   40 1   
    41   39   42 1   
    42   39   47 1   
    43   40   41 2   
    44   40   50 1   
    45   42   43 1   
    46   42   48 1   
    47   42   49 1   
    48   43   44 1   
    49   43   45 1   
    50   50   51 1   
    51   50   54 1   
    52   51   52 1   
    53   51   55 1   
    54   51   56 1   
    55   52   53 2   
    56   52   57 1   
    57   57   58 1   
    58   57   65 1   
    59   58   59 1   
    60   58   61 1   
    61   58   66 1   
    62   59   60 2   
    63   59   69 1   
    64   61   62 1   
    65   61   67 1   
    66   61   68 1   
    67   62   63 1   
    68   62   64 1   
    69   69   70 1   
    70   69   73 1   
    71   70   71 1   
    72   70   74 1   
    73   70   75 1   
    74   71   72 2   
    75   71   76 1   
    76   76   77 1   
    77   76   85 1   
    78   77   78 1   
    79   77   80 1   
    80   77   86 1   
    81   78   79 2   
    82   78   93 1   
    83   80   81 1   
    84   80   87 1   
    85   80   88 1   
    86   81   82 1   
    87   81   89 1   
    88   81   90 1   
    89   82   83 1   
    90   82   84 2   
    91   83   91 1   
    92   83   92 1   
    93   93   94 1   
    94   93  100 1   
    95   94   95 1   
    96   94   97 1   
    97   94  101 1   
    98   95   96 2   
    99   95  109 1   
   100   97   98 1   
   101   97   99 1   
   102   97  102 1   
   103   98  103 1   
   104   98  104 1   
   105   98  105 1   
   106   99  106 1   
   107   99  107 1   
   108   99  108 1   
   109  109  110 1   
   110  109  117 1   
   111  110  111 1   
   112  110  113 1   
   113  110  118 1   
   114  111  112 2   
   115  111  123 1   
   116  113  114 1   
   117  113  119 1   
   118  113  120 1   
   119  114  115 1   
   120  114  116 2   
   121  115  121 1   
   122  115  122 1   
   123  123  124 1   
   124  123  135 1   
   125  124  125 1   
   126  124  127 1   
   127  124  136 1   
   128  125  126 2   
   129  125  144 1   
   130  127  128 1   
   131  127  137 1   
   132  127  138 1   
   133  128  129 ar  
   134  128  130 ar  
   135  129  131 ar  
   136  129  139 1   
   137  130  132 ar  
   138  130  140 1   
   139  131  133 ar  
   140  131  141 1   
   141  132  133 ar  
   142  132  142 1   
   143  133  134 1   
   144  134  143 1   
   145  144  145 1   
   146  144  153 1   
   147  145  146 1   
   148  145  148 1   
   149  145  154 1   
   150  146  147 2   
   151  146  159 1   
   152  148  149 1   
   153  148  155 1   
   154  148  156 1   
   155  149  150 1   
   156  149  157 1   
   157  149  158 1   
   158  150  151 1   
   159  150  152 1   
   160  159  160 1   
   161  159  168 1   
   162  160  161 1   
   163  160  163 1   
   164  160  169 1   
   165  161  162 2   
   166  161  174 1   
   167  163  164 1   
   168  163  170 1   
   169  163  171 1   
   170  164  165 1   
   171  164  172 1   
   172  164  173 1   
   173  165  166 1   
   174  165  167 1   
   175  174  175 1   
   176  174  179 1   
   177  175  176 1   
   178  175  177 1   
   179  175  178 1   
   180  181  182 1   
   181  181  183 1   
   182  184  185 1   
   183  184  186 1   
   184  187  188 1   
   185  187  189 1   
   186  190  191 1   
   187  190  192 1   
@<TRIPOS>SUBSTRUCTURE
     1 MOL         1 TEMP              0 ****  ****    0 ROOT
