@<TRIPOS>MOLECULE
MOL
  192   187     1     0     0
SMALL
resp


@<TRIPOS>ATOM
      1 C1          5.4810    1.7150    6.0160 c3        1 MOL     -0.287406
      2 C2          4.9100    1.4170    4.6040 c         1 MOL      0.638728
      3 O1          4.3750    2.3910    4.0300 o         1 MOL     -0.564034
      4 H1          5.9350    0.8110    6.4230 hc        1 MOL      0.076145
      5 H2          6.2340    2.5000    5.9460 hc        1 MOL      0.076145
      6 H3          4.6740    2.0420    6.6730 hc        1 MOL      0.076145
      7 N1          5.0770    0.2470    4.0010 n         1 MOL     -0.448870
      8 C3          4.9750    0.0120    2.5470 c3        1 MOL      0.341990
      9 C4          3.5850   -0.0790    2.0410 c         1 MOL      0.007458
     10 O2          3.4770   -0.4600    0.8740 o         1 MOL      0.009284
     11 C5          5.9000   -1.1340    2.0620 c3        1 MOL      0.017192
     12 C6          7.3040   -0.9010    2.5490 c         1 MOL      0.720884
     13 O3          7.5360   -0.9540    3.7730 o         1 MOL     -0.726601
     14 O4          8.1340   -0.8440    1.6650 o         1 MOL     -0.726601
     15 H4          5.3080   -0.5420    4.5830 hn        1 MOL      0.221290
     16 H5          5.3910    0.8590    2.0110 h1        1 MOL      0.054145
     17 H6          6.0070   -1.0700    0.9870 hc        1 MOL     -0.109028
     18 H7          5.6190   -2.1680    2.2390 hc        1 MOL     -0.109028
     19 N2          2.5340    0.3660    2.7220 n         1 MOL     -0.330380
     20 C7          1.1180    0.1040    2.4150 c3        1 MOL      0.056118
     21 C8          0.2640    1.4080    2.3490 c         1 MOL      0.448797
     22 O5          0.4680    2.3000    3.1750 o         1 MOL     -0.495365
     23 C9          0.5830   -0.8120    3.5860 c3        1 MOL     -0.162271
     24 C10         0.8370   -2.2990    3.5220 c3        1 MOL      0.041038
     25 C11        -0.1290   -3.0600    4.3800 c3        1 MOL     -0.025839
     26 C12         0.3540   -4.5690    4.2650 c3        1 MOL      0.112613
     27 N3          1.0490   -4.9070    5.5070 n4        1 MOL     -0.456027
     28 H8          2.6560    0.9470    3.5360 hn        1 MOL      0.253040
     29 H9          1.0290   -0.3690    1.4400 h1        1 MOL     -0.094512
     30 H10        -0.4980   -0.6060    3.5960 hc        1 MOL      0.058651
     31 H11         1.0030   -0.4900    4.5410 hc        1 MOL      0.058651
     32 H12         1.8600   -2.4140    3.9040 hc        1 MOL      0.015428
     33 H13         0.6740   -2.7360    2.5330 hc        1 MOL      0.015428
     34 H14        -1.1240   -3.0430    3.9500 hc        1 MOL      0.034704
     35 H15        -0.2060   -2.6940    5.4030 hc        1 MOL      0.034704
     36 H16         1.0580   -4.6010    3.4350 hx        1 MOL      0.067712
     37 H17        -0.4580   -5.2780    4.1090 hx        1 MOL      0.067712
     38 H18         1.6820   -5.6770    5.3440 hn        1 MOL      0.349724
     39 H19         1.5110   -4.0610    5.8070 hn        1 MOL      0.349724
     40 H20         0.4190   -5.1970    6.2400 hn        1 MOL      0.349724
     41 N4         -0.6660    1.5740    1.4280 n         1 MOL     -0.134730
     42 C13        -1.1910    0.7010    0.4150 c3        1 MOL     -0.405778
     43 C14        -1.5940   -0.7620    0.8000 c         1 MOL      0.870640
     44 O6         -1.0800   -1.6560    0.1320 o         1 MOL     -0.690862
     45 C15        -0.2530    0.8830   -0.8240 c3        1 MOL     -0.046734
     46 C16        -0.1030    2.2750   -1.4560 c         1 MOL      0.650338
     47 O7          0.5860    2.3330   -2.4600 o         1 MOL     -0.672946
     48 O8         -0.8360    3.2310   -1.1340 o         1 MOL     -0.672946
     49 H21        -0.8790    2.5640    1.4300 hn        1 MOL      0.091485
     50 H22        -2.1370    1.1720    0.1150 h1        1 MOL      0.105962
     51 H23        -0.6350    0.2040   -1.5800 hc        1 MOL      0.084839
     52 H24         0.7330    0.5210   -0.5460 hc        1 MOL      0.084839
     53 N5         -2.4620   -1.0080    1.7540 n         1 MOL     -0.460714
     54 C17        -3.2980    0.0810    2.3990 c3        1 MOL      0.096529
     55 C18        -4.5120   -0.4710    3.1950 c         1 MOL      0.490950
     56 O9         -4.5150   -1.6630    3.5890 o         1 MOL     -0.544573
     57 H25        -2.7220   -1.9670    1.9250 hn        1 MOL      0.282123
     58 H26        -3.5570    0.7980    1.6110 h1        1 MOL      0.047918
     59 H27        -2.7400    0.7360    3.0770 h1        1 MOL      0.047918
     60 N6         -5.5160    0.3280    3.5330 n         1 MOL     -0.430129
     61 C19        -5.8670    1.6630    2.9190 c3        1 MOL     -0.017619
     62 C20        -6.7570    1.4090    1.7110 c         1 MOL      0.400555
     63 O10        -7.4620    0.4420    1.6330 o         1 MOL     -0.411332
     64 C21        -6.5130    2.6240    3.9300 c3        1 MOL     -0.164432
     65 C22        -7.8950    2.1770    4.4310 c         1 MOL      0.706792
     66 O11        -7.9830    1.2440    5.3210 o         1 MOL     -0.650640
     67 O12        -8.9440    2.7730    3.9930 o         1 MOL     -0.650640
     68 H28        -6.2830   -0.1400    3.9980 hn        1 MOL      0.327125
     69 H29        -4.9640    2.1960    2.6000 h1        1 MOL      0.068415
     70 H30        -6.5900    3.6420    3.5310 hc        1 MOL      0.024325
     71 H31        -5.8640    2.6790    4.7900 hc        1 MOL      0.024325
     72 N7         -6.8390    2.4240    0.8170 n         1 MOL     -0.179675
     73 C23        -7.7720    2.4360   -0.3720 c3        1 MOL     -0.392558
     74 C24        -7.3190    1.6050   -1.5880 c         1 MOL      0.598829
     75 O13        -8.1620    1.4950   -2.5250 o         1 MOL     -0.555654
     76 H32        -6.1440    3.1420    0.9570 hn        1 MOL      0.193618
     77 H33        -7.8080    3.4760   -0.6980 h1        1 MOL      0.192207
     78 H34        -8.7470    2.0270   -0.0780 h1        1 MOL      0.192207
     79 N8         -6.1020    1.0360   -1.6570 n         1 MOL     -0.368099
     80 C25        -5.7490   -0.1470   -2.4920 c3        1 MOL     -0.085817
     81 C26        -4.8560   -1.0060   -1.5940 c         1 MOL      0.433955
     82 O14        -4.3240   -0.4370   -0.6580 o         1 MOL     -0.361531
     83 C27        -5.0890    0.1980   -3.8830 c3        1 MOL      0.250447
     84 C28        -5.0520   -0.9780   -4.8260 c3        1 MOL     -0.166549
     85 O15        -3.7650    0.6490   -3.5660 oh        1 MOL     -0.533514
     86 H35        -5.5430    1.1700   -0.8250 hn        1 MOL      0.143061
     87 H36        -6.6620   -0.7050   -2.6820 h1        1 MOL      0.129840
     88 H37        -5.6650    1.0280   -4.2990 h1        1 MOL      0.042761
     89 H38        -3.9340    1.2850   -2.8700 ho        1 MOL      0.329741
     90 H39        -6.0820   -1.2380   -5.0750 hc        1 MOL      0.048169
     91 H40        -4.5500   -0.6260   -5.7310 hc        1 MOL      0.048169
     92 H41        -4.4370   -1.7760   -4.4000 hc        1 MOL      0.048169
     93 N9         -4.7570   -2.3740   -1.8060 n         1 MOL     -0.506014
     94 C29        -4.1920   -3.2870   -0.8100 c3        1 MOL     -0.013830
     95 C30        -3.1630   -4.2070   -1.6040 c         1 MOL      0.495368
     96 O16        -3.2430   -5.4520   -1.5410 o         1 MOL     -0.517141
     97 C31        -5.3670   -4.0930   -0.1540 c3        1 MOL      0.272965
     98 C32        -6.5990   -3.3090    0.2350 c3        1 MOL     -0.009189
     99 C33        -4.7420   -4.6710    1.1370 c3        1 MOL     -0.335038
    100 C34        -7.7150   -3.9780    0.9830 c3        1 MOL     -0.314715
    101 H42        -5.4600   -2.7680   -2.4200 hn        1 MOL      0.298374
    102 H43        -3.7040   -2.7070   -0.0300 h1        1 MOL      0.038562
    103 H44        -5.6720   -4.9340   -0.7850 hc        1 MOL     -0.038205
    104 H45        -6.9860   -2.9220   -0.7120 hc        1 MOL      0.025482
    105 H46        -6.2870   -2.4360    0.8050 hc        1 MOL      0.025482
    106 H47        -4.4790   -3.8450    1.7850 hc        1 MOL      0.074071
    107 H48        -5.4490   -5.3300    1.6320 hc        1 MOL      0.074071
    108 H49        -3.8360   -5.1910    0.8350 hc        1 MOL      0.074071
    109 H50        -7.4230   -4.0740    2.0260 hc        1 MOL      0.091805
    110 H51        -8.6380   -3.4060    0.8930 hc        1 MOL      0.091805
    111 H52        -7.8240   -4.9560    0.5080 hc        1 MOL      0.091805
    112 N10        -2.2280   -3.5350   -2.3280 n         1 MOL     -0.302558
    113 C35        -1.3260   -4.2420   -3.2450 c3        1 MOL      0.061284
    114 C36         0.1690   -4.0870   -2.8410 c         1 MOL      0.333413
    115 O17         1.0470   -4.6160   -3.4820 o         1 MOL     -0.508687
    116 C37        -1.3340   -3.6530   -4.7330 c3        1 MOL      0.303572
    117 C38        -0.9130   -2.2240   -4.9310 c3        1 MOL     -0.192568
    118 O18        -2.6600   -3.8250   -5.2240 oh        1 MOL     -0.647448
    119 H53        -2.3260   -2.5300   -2.3300 hn        1 MOL      0.292691
    120 H54        -1.6230   -5.2930   -3.2570 h1        1 MOL      0.113890
    121 H55        -0.6670   -4.2990   -5.3030 h1        1 MOL      0.016414
    122 H56        -2.7770   -3.3260   -6.0280 ho        1 MOL      0.385666
    123 H57        -0.9930   -1.9630   -5.9860 hc        1 MOL      0.066496
    124 H58        -1.6440   -1.5510   -4.5000 hc        1 MOL      0.066496
    125 H59         0.1410   -2.0310   -4.7000 hc        1 MOL      0.066496
    126 N11         0.4630   -3.3490   -1.7390 n         1 MOL     -0.405055
    127 C39         1.8090   -2.9120   -1.2210 c3        1 MOL      0.104114
    128 C40         2.7350   -2.2070   -2.3050 c         1 MOL      0.421011
    129 O19         2.6250   -2.3550   -3.4870 o         1 MOL     -0.429423
    130 C41         2.3400   -4.0250   -0.4050 c3        1 MOL      0.394765
    131 C42         3.4690   -3.7400    0.5510 c3        1 MOL      0.013264
    132 O20         2.8290   -5.0160   -1.2590 oh        1 MOL     -0.699124
    133 H60        -0.2770   -2.8150   -1.3020 hn        1 MOL      0.176818
    134 H61         1.5530   -2.0960   -0.5450 h1        1 MOL      0.113313
    135 H62         1.5830   -4.4350    0.2550 h1        1 MOL     -0.066751
    136 H63         2.2420   -5.0050   -2.0260 ho        1 MOL      0.439229
    137 H64         2.9410   -3.3010    1.3960 hc        1 MOL     -0.014773
    138 H65         3.9880   -4.6440    0.8420 hc        1 MOL     -0.014773
    139 H66         4.2340   -3.0830    0.1170 hc        1 MOL     -0.014773
    140 N12         3.6340   -1.3100   -1.8070 n         1 MOL     -0.265269
    141 C43         4.7140   -0.7270   -2.6310 c3        1 MOL     -0.024225
    142 C44         5.2050    0.6510   -2.2570 c         1 MOL      0.516843
    143 O21         6.0310    1.2130   -2.9550 o         1 MOL     -0.541773
    144 C45         5.9380   -1.6380   -2.8180 c3        1 MOL     -0.266989
    145 C46         6.7680   -1.9580   -1.4890 c3        1 MOL      0.122947
    146 C47         7.9760   -2.9150   -1.6620 c3        1 MOL     -0.021797
    147 C48         8.8460   -3.0290   -0.4300 c3        1 MOL      0.133041
    148 N13         9.7870   -4.0960   -0.6640 n4        1 MOL     -0.508820
    149 H67         3.7380   -1.2360   -0.8050 hn        1 MOL      0.028019
    150 H68         4.3040   -0.5800   -3.6250 h1        1 MOL      0.105517
    151 H69         6.6290   -1.1330   -3.4900 hc        1 MOL      0.082242
    152 H70         5.6030   -2.5560   -3.2960 hc        1 MOL      0.082242
    153 H71         5.9970   -2.5580   -1.0050 hc        1 MOL      0.051516
    154 H72         7.0220   -1.0460   -0.9400 hc        1 MOL      0.051516
    155 H73         8.5790   -2.6090   -2.5180 hc        1 MOL     -0.006238
    156 H74         7.5130   -3.8820   -1.8840 hc        1 MOL     -0.006238
    157 H75         8.2080   -3.3140    0.4060 hx        1 MOL      0.091524
    158 H76         9.2340   -2.0450   -0.1930 hx        1 MOL      0.091524
    159 H77        10.0760   -4.4650    0.2310 hn        1 MOL      0.352560
    160 H78         9.3550   -4.8570   -1.1640 hn        1 MOL      0.352560
    161 H79        10.6150   -3.7650   -1.1280 hn        1 MOL      0.352560
    162 N14         4.6510    1.1880   -1.1710 n         1 MOL      0.181015
    163 C49         4.5320    2.6260   -0.9700 c3        1 MOL     -0.985947
    164 C50         5.8050    3.3480   -0.5320 c         1 MOL      0.616529
    165 O22         6.5660    2.8430    0.3530 o         1 MOL     -0.501926
    166 C51         3.3530    2.8740   -0.0010 c3        1 MOL      0.970645
    167 C52         3.0450    4.3860    0.2350 c3        1 MOL     -1.096387
    168 C53         2.7740    5.2090   -1.0680 c         1 MOL      0.953107
    169 O23         1.5670    5.5610   -1.3070 o         1 MOL     -0.754341
    170 O24         3.7150    5.6320   -1.8030 o         1 MOL     -0.754341
    171 H80         4.0960    0.5570   -0.6020 hn        1 MOL     -0.150132
    172 H81         4.1760    3.0310   -1.9140 h1        1 MOL      0.276503
    173 H82         3.5590    2.3730    0.9370 hc        1 MOL     -0.108399
    174 H83         2.4820    2.4060   -0.4560 hc        1 MOL     -0.108399
    175 H84         3.9070    4.8320    0.7300 hc        1 MOL      0.236932
    176 H85         2.2230    4.4330    0.9610 hc        1 MOL      0.236932
    177 N15         6.0230    4.5550   -1.0400 n         1 MOL     -0.327554
    178 C54         7.2100    5.4230   -0.7750 c3        1 MOL     -0.201507
    179 H86         7.0140    6.4290   -1.1450 h1        1 MOL      0.094585
    180 H87         7.4000    5.4610    0.2970 h1        1 MOL      0.094585
    181 H88         8.0820    5.0130   -1.2850 h1        1 MOL      0.094585
    182 H89         5.3050    4.8960   -1.6650 hn        1 MOL      0.401976
    183 Ca1        -0.9930    5.7840   -1.1510 Ca        1 MOL      1.614103
    184 O25        -0.5620    4.5990   -3.5490 oh        1 MOL     -0.829699
    185 H90        -0.2060    4.8310   -4.4000 ho        1 MOL      0.410760
    186 H91        -0.0410    3.8420   -3.2740 ho        1 MOL      0.410760
    187 O26        -2.9530    7.0550   -2.4380 oh        1 MOL     -0.829699
    188 H92        -2.8240    6.9510   -3.3870 ho        1 MOL      0.410760
    189 H93        -3.0010    8.0030   -2.3140 ho        1 MOL      0.410760
    190 O27        -0.1710    7.8330   -2.6940 oh        1 MOL     -0.829699
    191 H94        -0.0410    8.6670   -2.2490 ho        1 MOL      0.410760
    192 H95        -0.4340    8.0760   -3.5870 ho        1 MOL      0.410760
@<TRIPOS>BOND
     1    1    2 1   
     2    1    4 1   
     3    1    5 1   
     4    1    6 1   
     5    2    3 2   
     6    2    7 1   
     7    7    8 1   
     8    7   15 1   
     9    8    9 1   
    10    8   11 1   
    11    8   16 1   
    12    9   10 2   
    13    9   19 1   
    14   11   12 1   
    15   11   17 1   
    16   11   18 1   
    17   12   13 1   
    18   12   14 1   
    19   19   20 1   
    20   19   28 1   
    21   20   21 1   
    22   20   23 1   
    23   20   29 1   
    24   21   22 2   
    25   21   41 1   
    26   23   24 1   
    27   23   30 1   
    28   23   31 1   
    29   24   25 1   
    30   24   32 1   
    31   24   33 1   
    32   25   26 1   
    33   25   34 1   
    34   25   35 1   
    35   26   27 1   
    36   26   36 1   
    37   26   37 1   
    38   27   38 1   
    39   27   39 1   
    40   27   40 1   
    41   41   42 1   
    42   41   49 1   
    43   42   43 1   
    44   42   45 1   
    45   42   50 1   
    46   43   44 2   
    47   43   53 1   
    48   45   46 1   
    49   45   51 1   
    50   45   52 1   
    51   46   47 1   
    52   46   48 1   
    53   53   54 1   
    54   53   57 1   
    55   54   55 1   
    56   54   58 1   
    57   54   59 1   
    58   55   56 2   
    59   55   60 1   
    60   60   61 1   
    61   60   68 1   
    62   61   62 1   
    63   61   64 1   
    64   61   69 1   
    65   62   63 2   
    66   62   72 1   
    67   64   65 1   
    68   64   70 1   
    69   64   71 1   
    70   65   66 1   
    71   65   67 1   
    72   72   73 1   
    73   72   76 1   
    74   73   74 1   
    75   73   77 1   
    76   73   78 1   
    77   74   75 2   
    78   74   79 1   
    79   79   80 1   
    80   79   86 1   
    81   80   81 1   
    82   80   83 1   
    83   80   87 1   
    84   81   82 2   
    85   81   93 1   
    86   83   84 1   
    87   83   85 1   
    88   83   88 1   
    89   84   90 1   
    90   84   91 1   
    91   84   92 1   
    92   85   89 1   
    93   93   94 1   
    94   93  101 1   
    95   94   95 1   
    96   94   97 1   
    97   94  102 1   
    98   95   96 2   
    99   95  112 1   
   100   97   98 1   
   101   97   99 1   
   102   97  103 1   
   103   98  100 1   
   104   98  104 1   
   105   98  105 1   
   106   99  106 1   
   107   99  107 1   
   108   99  108 1   
   109  100  109 1   
   110  100  110 1   
   111  100  111 1   
   112  112  113 1   
   113  112  119 1   
   114  113  114 1   
   115  113  116 1   
   116  113  120 1   
   117  114  115 2   
   118  114  126 1   
   119  116  117 1   
   120  116  118 1   
   121  116  121 1   
   122  117  123 1   
   123  117  124 1   
   124  117  125 1   
   125  118  122 1   
   126  126  127 1   
   127  126  133 1   
   128  127  128 1   
   129  127  130 1   
   130  127  134 1   
   131  128  129 2   
   132  128  140 1   
   133  130  131 1   
   134  130  132 1   
   135  130  135 1   
   136  131  137 1   
   137  131  138 1   
   138  131  139 1   
   139  132  136 1   
   140  140  141 1   
   141  140  149 1   
   142  141  142 1   
   143  141  144 1   
   144  141  150 1   
   145  142  143 2   
   146  142  162 1   
   147  144  145 1   
   148  144  151 1   
   149  144  152 1   
   150  145  146 1   
   151  145  153 1   
   152  145  154 1   
   153  146  147 1   
   154  146  155 1   
   155  146  156 1   
   156  147  148 1   
   157  147  157 1   
   158  147  158 1   
   159  148  159 1   
   160  148  160 1   
   161  148  161 1   
   162  162  163 1   
   163  162  171 1   
   164  163  164 1   
   165  163  166 1   
   166  163  172 1   
   167  164  165 2   
   168  164  177 1   
   169  166  167 1   
   170  166  173 1   
   171  166  174 1   
   172  167  168 1   
   173  167  175 1   
   174  167  176 1   
   175  168  169 1   
   176  168  170 1   
   177  177  178 1   
   178  177  182 1   
   179  178  179 1   
   180  178  180 1   
   181  178  181 1   
   182  184  185 1   
   183  184  186 1   
   184  187  188 1   
   185  187  189 1   
   186  190  191 1   
   187  190  192 1   
@<TRIPOS>SUBSTRUCTURE
     1 MOL         1 TEMP              0 ****  ****    0 ROOT
