@<TRIPOS>MOLECULE
MOL
  178   175     1     0     0
SMALL
resp


@<TRIPOS>ATOM
      1 C1          2.1080   -1.1860    4.9040 c3        1 MOL     -0.262913
      2 C2          3.2460   -0.7370    3.9920 c         1 MOL      0.682346
      3 O1          3.1230    0.1940    3.1820 o         1 MOL     -0.571712
      4 H1          1.2330   -1.4260    4.3010 hc        1 MOL      0.059240
      5 H2          2.4160   -2.0700    5.4630 hc        1 MOL      0.059240
      6 H3          1.8600   -0.3840    5.5990 hc        1 MOL      0.059240
      7 N1          4.4030   -1.3870    4.1840 n         1 MOL     -0.648247
      8 C3          5.6670   -1.0810    3.5000 c3        1 MOL      0.377638
      9 C4          5.8490   -2.0210    2.2810 c         1 MOL      0.538219
     10 O2          6.7970   -1.9080    1.5140 o         1 MOL     -0.547080
     11 C5          6.7610   -1.0480    4.5190 c3        1 MOL     -0.311572
     12 C6          8.0720   -0.4680    3.9350 c         1 MOL      0.758557
     13 O3          8.0470    0.4990    3.1880 o         1 MOL     -0.734134
     14 O4          9.1770   -0.9410    4.3820 o         1 MOL     -0.734134
     15 H4          4.3750   -2.1800    4.8240 hn        1 MOL      0.292306
     16 H5          5.5710   -0.0750    3.0950 h1        1 MOL      0.037543
     17 H6          7.0270   -2.0810    4.7540 hc        1 MOL      0.027761
     18 H7          6.5830   -0.5270    5.4600 hc        1 MOL      0.027761
     19 N2          4.8940   -2.9190    1.9790 n         1 MOL     -0.520721
     20 C7          4.8070   -3.7740    0.7330 c3        1 MOL      0.116015
     21 C8          4.7280   -2.9830   -0.5800 c         1 MOL      0.679038
     22 O5          3.6040   -2.9770   -1.1140 o         1 MOL     -0.727746
     23 C9          5.9760   -4.8110    0.8690 c3        1 MOL     -0.526847
     24 H8          4.0590   -2.8710    2.5480 hn        1 MOL      0.288979
     25 H9          3.8640   -4.2640    0.9430 h1        1 MOL      0.114863
     26 H10         6.0140   -5.5650    0.0830 hc        1 MOL      0.149412
     27 H11         6.9160   -4.2650    0.8130 hc        1 MOL      0.149412
     28 H12         5.9820   -5.3800    1.8030 hc        1 MOL      0.149412
     29 N3          5.6850   -2.2840   -1.1090 n         1 MOL     -0.414806
     30 C10         5.6800   -1.5160   -2.3100 c3        1 MOL      0.251569
     31 C11         6.0370   -0.0170   -2.0750 c         1 MOL      0.489365
     32 O6          6.5330    0.7420   -2.9100 o         1 MOL     -0.526439
     33 C12         6.4510   -2.1430   -3.5130 c3        1 MOL     -0.353711
     34 C13         6.1670   -3.6260   -3.7270 c         1 MOL      0.849455
     35 O7          5.1970   -3.9470   -4.5090 o         1 MOL     -0.747447
     36 O8          6.9400   -4.4960   -3.2220 o         1 MOL     -0.747447
     37 H13         6.5110   -2.3120   -0.5330 hn        1 MOL      0.274415
     38 H14         4.6500   -1.5580   -2.6620 h1        1 MOL     -0.033753
     39 H15         7.5080   -2.0280   -3.2540 hc        1 MOL      0.054566
     40 H16         6.2750   -1.5580   -4.4190 hc        1 MOL      0.054566
     41 N4          5.7920    0.3930   -0.8130 n         1 MOL     -0.245385
     42 C14         5.9820    1.7490   -0.3530 c3        1 MOL     -0.081775
     43 C15         5.0270    2.7620   -1.1180 c         1 MOL      0.533575
     44 O9          5.4420    3.7810   -1.6780 o         1 MOL     -0.546461
     45 H17         5.4500   -0.3350   -0.2040 hn        1 MOL      0.181809
     46 H18         6.9920    2.1470   -0.3040 h1        1 MOL      0.092856
     47 H19         5.5780    1.7440    0.6610 h1        1 MOL      0.092856
     48 N5          3.7840    2.3810   -1.2340 n         1 MOL     -0.306486
     49 C16         2.7210    3.0630   -2.0260 c3        1 MOL     -0.217766
     50 C17         2.3250    4.4570   -1.5390 c         1 MOL      0.607463
     51 O10         2.3570    4.7930   -0.3660 o         1 MOL     -0.533357
     52 C18         1.5560    2.0960   -2.1670 c3        1 MOL     -0.179231
     53 C19         1.9440    0.8410   -2.8500 c         1 MOL      0.624387
     54 N6          2.4360    0.8820   -4.0310 n         1 MOL     -0.678944
     55 O11         1.8040   -0.2380   -2.3610 o         1 MOL     -0.587097
     56 H20         3.5170    1.5010   -0.8190 hn        1 MOL      0.263617
     57 H21         3.0600    3.3030   -3.0370 h1        1 MOL      0.086840
     58 H22         0.7600    2.5440   -2.7480 hc        1 MOL      0.114239
     59 H23         1.0470    2.0370   -1.2040 hc        1 MOL      0.114239
     60 H24         2.6410    1.7810   -4.4300 hn        1 MOL      0.321810
     61 H25         2.7140    0.0320   -4.4930 hn        1 MOL      0.321810
     62 N7          1.8660    5.2760   -2.4100 n         1 MOL     -0.385567
     63 C20         1.3830    6.7140   -2.1860 c3        1 MOL     -0.165092
     64 C21        -0.1370    6.8510   -1.9710 c         1 MOL      0.578347
     65 O12        -0.9510    6.2440   -2.6560 o         1 MOL     -0.494112
     66 H26         1.6080    4.7570   -3.2370 hn        1 MOL      0.252386
     67 H27         1.7210    7.2890   -3.0560 h1        1 MOL      0.121779
     68 H28         1.9290    7.0630   -1.3130 h1        1 MOL      0.121779
     69 N8         -0.4750    7.5950   -0.8550 n         1 MOL     -0.529001
     70 C22        -1.8310    7.8040   -0.3740 c3        1 MOL     -0.166807
     71 C23        -2.6610    6.7040    0.2690 c         1 MOL      0.401352
     72 O13        -3.8860    6.8610    0.4950 o         1 MOL     -0.523192
     73 C24        -1.8830    9.2260    0.3280 c3        1 MOL      0.484802
     74 C25        -1.1610    9.2470    1.6730 c3        1 MOL     -0.341795
     75 O14        -1.2500   10.2130   -0.5680 oh        1 MOL     -0.640307
     76 H29         0.2910    8.0750   -0.4020 hn        1 MOL      0.275064
     77 H30        -2.3980    8.1160   -1.2580 h1        1 MOL      0.143196
     78 H31        -2.9340    9.4170    0.5170 h1        1 MOL      0.017279
     79 H32        -0.3060   10.0480   -0.4930 ho        1 MOL      0.379566
     80 H33        -1.6850    8.5750    2.3510 hc        1 MOL      0.080178
     81 H34        -0.1410    8.8980    1.5610 hc        1 MOL      0.080178
     82 H35        -1.1730   10.2620    2.0910 hc        1 MOL      0.080178
     83 N9         -1.9610    5.5390    0.4980 n         1 MOL     -0.102363
     84 C26        -2.4710    4.4090    1.1350 c3        1 MOL     -0.001955
     85 C27        -2.1070    3.2170    0.2070 c         1 MOL      0.334997
     86 O15        -1.2740    3.2940   -0.6470 o         1 MOL     -0.439524
     87 C28        -1.8990    4.2720    2.5660 c3        1 MOL      0.073803
     88 C29        -0.4520    3.7950    2.6640 c3        1 MOL     -0.219777
     89 C30        -2.1220    5.5860    3.3620 c3        1 MOL     -0.167648
     90 C31        -0.1220    3.4670    4.1490 c3        1 MOL     -0.282223
     91 H36        -0.9960    5.4290    0.2140 hn        1 MOL      0.219265
     92 H37        -3.5640    4.4860    1.1210 h1        1 MOL      0.049387
     93 H38        -2.5230    3.4930    2.9870 hc        1 MOL     -0.011527
     94 H39         0.1610    4.4540    2.0470 hc        1 MOL      0.131111
     95 H40        -0.3900    2.8450    2.1390 hc        1 MOL      0.131111
     96 H41        -1.7800    5.4580    4.3950 hc        1 MOL      0.040153
     97 H42        -1.5200    6.3650    2.9050 hc        1 MOL      0.040153
     98 H43        -3.1630    5.9080    3.2670 hc        1 MOL      0.040153
     99 H44        -1.0250    3.2620    4.7250 hc        1 MOL      0.096710
    100 H45         0.6080    2.6610    4.1780 hc        1 MOL      0.096710
    101 H46         0.3650    4.3220    4.6200 hc        1 MOL      0.096710
    102 N10        -2.6750    2.0610    0.5690 n         1 MOL     -0.325949
    103 C32        -2.3530    0.7580   -0.0550 c3        1 MOL      0.004880
    104 C33        -3.5990   -0.1740   -0.1760 c         1 MOL      0.582481
    105 O16        -3.4730   -1.3910   -0.0140 o         1 MOL     -0.473300
    106 C34        -1.2270    0.1030    0.6710 c3        1 MOL     -0.032799
    107 C35        -0.3980   -0.9770   -0.1190 c         1 MOL      0.574962
    108 O17         0.7350   -1.3830    0.2680 o         1 MOL     -0.729394
    109 O18        -0.7620   -1.3080   -1.2620 o         1 MOL     -0.729394
    110 H47        -3.2940    2.1810    1.3610 hn        1 MOL      0.235396
    111 H48        -1.9530    1.0850   -1.0190 h1        1 MOL      0.077947
    112 H49        -1.6740   -0.3910    1.5460 hc        1 MOL      0.036438
    113 H50        -0.5440    0.8710    1.0300 hc        1 MOL      0.036438
    114 N11        -4.8150    0.3190   -0.4000 n         1 MOL     -0.533180
    115 C36        -5.9610   -0.5860   -0.6530 c3        1 MOL      0.248292
    116 C37        -6.1270   -1.7440    0.3760 c         1 MOL      0.400295
    117 O19        -6.1020   -1.4480    1.5450 o         1 MOL     -0.521202
    118 C38        -7.2190    0.2980   -0.7750 c3        1 MOL     -0.285594
    119 C39        -8.4150   -0.3250   -1.4570 ca        1 MOL      0.058346
    120 C40        -8.5080   -0.4090   -2.8570 ca        1 MOL     -0.184945
    121 C41        -9.2940   -1.0480   -0.6080 ca        1 MOL     -0.184945
    122 C42        -9.4010   -1.3250   -3.4450 ca        1 MOL     -0.055976
    123 C43       -10.2990   -1.8520   -1.1970 ca        1 MOL     -0.055976
    124 C44       -10.3290   -2.0490   -2.6150 ca        1 MOL     -0.199612
    125 H51        -4.9940    1.3070   -0.3710 hn        1 MOL      0.260934
    126 H52        -5.7570   -1.0830   -1.5940 h1        1 MOL      0.014173
    127 H53        -6.9500    1.2140   -1.3010 hc        1 MOL      0.115758
    128 H54        -7.5390    0.6140    0.2210 hc        1 MOL      0.115758
    129 H55        -7.7390    0.1020   -3.4260 ha        1 MOL      0.134261
    130 H56        -9.2030   -0.9410    0.4560 ha        1 MOL      0.134261
    131 H57        -9.3720   -1.3700   -4.5190 ha        1 MOL      0.104760
    132 H58       -10.9970   -2.3130   -0.5210 ha        1 MOL      0.104760
    133 H59       -11.1030   -2.6600   -3.0640 ha        1 MOL      0.125719
    134 N12        -6.2960   -3.0330   -0.0210 n         1 MOL     -0.128957
    135 C45        -6.3580   -4.2000    0.9150 c3        1 MOL     -0.089465
    136 C46        -5.1630   -4.6120    1.8440 c         1 MOL      0.354475
    137 O20        -5.3900   -5.5010    2.6210 o         1 MOL     -0.516323
    138 C47        -6.7070   -5.3510   -0.1140 c3        1 MOL      0.060887
    139 C48        -7.3420   -4.7210   -1.3550 c3        1 MOL     -0.251672
    140 C49        -6.5810   -3.3950   -1.4440 c3        1 MOL      0.256508
    141 H60        -7.1640   -4.1360    1.6420 h1        1 MOL      0.093344
    142 H61        -5.7470   -5.8180   -0.3490 hc        1 MOL      0.033744
    143 H62        -7.3560   -6.1410    0.2630 hc        1 MOL      0.033744
    144 H63        -7.1770   -5.3350   -2.2380 hc        1 MOL      0.060082
    145 H64        -8.3880   -4.4880   -1.1520 hc        1 MOL      0.060082
    146 H65        -5.6660   -3.4340   -2.0310 h1        1 MOL     -0.010485
    147 H66        -7.1350   -2.5730   -1.8990 h1        1 MOL     -0.010485
    148 N13        -4.0240   -3.9140    1.7530 n         1 MOL     -0.079400
    149 C50        -2.8790   -3.8910    2.7210 c3        1 MOL     -0.154284
    150 C51        -3.0710   -2.7810    3.7390 c         1 MOL      0.457264
    151 O21        -2.4330   -2.7960    4.7750 o         1 MOL     -0.556354
    152 C52        -1.5870   -3.6100    1.9850 c3        1 MOL     -0.017399
    153 C53        -1.1960   -4.8800    1.1400 c3        1 MOL     -0.045297
    154 C54        -0.2760   -4.4660    0.0490 c         1 MOL      0.637836
    155 O22        -0.7290   -4.3310   -1.1310 o         1 MOL     -0.736569
    156 O23         0.9590   -4.2970    0.2680 o         1 MOL     -0.736569
    157 H67        -4.0300   -3.2800    0.9730 hn        1 MOL      0.084385
    158 H68        -2.7610   -4.8470    3.2140 h1        1 MOL      0.121884
    159 H69        -0.8210   -3.2050    2.6400 hc        1 MOL      0.085932
    160 H70        -1.7850   -2.7760    1.3150 hc        1 MOL      0.085932
    161 H71        -2.0130   -5.4840    0.7440 hc        1 MOL     -0.001993
    162 H72        -0.6220   -5.5540    1.7870 hc        1 MOL     -0.001993
    163 N14        -3.9480   -1.8100    3.4530 n         1 MOL     -0.135622
    164 C55        -4.4160   -0.6680    4.2890 c3        1 MOL     -0.253277
    165 H73        -5.5010   -0.7120    4.3890 h1        1 MOL      0.097962
    166 H74        -3.9580   -0.7260    5.2760 h1        1 MOL      0.097962
    167 H75        -4.1340    0.2710    3.8130 h1        1 MOL      0.097962
    168 H76        -4.4030   -1.7670    2.5610 hn        1 MOL      0.180781
    169 Ca1         1.3100   -2.7420   -1.9550 Ca        1 MOL      1.849288
    170 O24         2.8880   -2.4180   -4.0660 oh        1 MOL     -0.821380
    171 H77         2.4830   -2.2990   -4.9230 ho        1 MOL      0.396662
    172 H78         3.6640   -2.9440   -4.2410 ho        1 MOL      0.396662
    173 O25        -0.1010   -2.9350   -4.1530 oh        1 MOL     -0.821380
    174 H79        -0.1840   -2.2920   -4.8660 ho        1 MOL      0.396662
    175 H80        -0.6920   -3.6470   -4.4020 ho        1 MOL      0.396662
    176 O26         2.0120   -5.0630   -2.8230 oh        1 MOL     -0.821380
    177 H81         2.3110   -5.6500   -2.1320 ho        1 MOL      0.396662
    178 H82         1.9030   -5.6400   -3.5790 ho        1 MOL      0.396662
@<TRIPOS>BOND
     1    1    2 1   
     2    1    4 1   
     3    1    5 1   
     4    1    6 1   
     5    2    3 2   
     6    2    7 1   
     7    7    8 1   
     8    7   15 1   
     9    8    9 1   
    10    8   11 1   
    11    8   16 1   
    12    9   10 2   
    13    9   19 1   
    14   11   12 1   
    15   11   17 1   
    16   11   18 1   
    17   12   13 1   
    18   12   14 1   
    19   19   20 1   
    20   19   24 1   
    21   20   21 1   
    22   20   23 1   
    23   20   25 1   
    24   21   22 2   
    25   21   29 1   
    26   23   26 1   
    27   23   27 1   
    28   23   28 1   
    29   29   30 1   
    30   29   37 1   
    31   30   31 1   
    32   30   33 1   
    33   30   38 1   
    34   31   32 2   
    35   31   41 1   
    36   33   34 1   
    37   33   39 1   
    38   33   40 1   
    39   34   35 1   
    40   34   36 1   
    41   41   42 1   
    42   41   45 1   
    43   42   43 1   
    44   42   46 1   
    45   42   47 1   
    46   43   44 2   
    47   43   48 1   
    48   48   49 1   
    49   48   56 1   
    50   49   50 1   
    51   49   52 1   
    52   49   57 1   
    53   50   51 2   
    54   50   62 1   
    55   52   53 1   
    56   52   58 1   
    57   52   59 1   
    58   53   54 1   
    59   53   55 2   
    60   54   60 1   
    61   54   61 1   
    62   62   63 1   
    63   62   66 1   
    64   63   64 1   
    65   63   67 1   
    66   63   68 1   
    67   64   65 2   
    68   64   69 1   
    69   69   70 1   
    70   69   76 1   
    71   70   71 1   
    72   70   73 1   
    73   70   77 1   
    74   71   72 2   
    75   71   83 1   
    76   73   74 1   
    77   73   75 1   
    78   73   78 1   
    79   74   80 1   
    80   74   81 1   
    81   74   82 1   
    82   75   79 1   
    83   83   84 1   
    84   83   91 1   
    85   84   85 1   
    86   84   87 1   
    87   84   92 1   
    88   85   86 2   
    89   85  102 1   
    90   87   88 1   
    91   87   89 1   
    92   87   93 1   
    93   88   90 1   
    94   88   94 1   
    95   88   95 1   
    96   89   96 1   
    97   89   97 1   
    98   89   98 1   
    99   90   99 1   
   100   90  100 1   
   101   90  101 1   
   102  102  103 1   
   103  102  110 1   
   104  103  104 1   
   105  103  106 1   
   106  103  111 1   
   107  104  105 2   
   108  104  114 1   
   109  106  107 1   
   110  106  112 1   
   111  106  113 1   
   112  107  108 1   
   113  107  109 1   
   114  114  115 1   
   115  114  125 1   
   116  115  116 1   
   117  115  118 1   
   118  115  126 1   
   119  116  117 2   
   120  116  134 1   
   121  118  119 1   
   122  118  127 1   
   123  118  128 1   
   124  119  120 ar  
   125  119  121 ar  
   126  120  122 ar  
   127  120  129 1   
   128  121  123 ar  
   129  121  130 1   
   130  122  124 ar  
   131  122  131 1   
   132  123  124 ar  
   133  123  132 1   
   134  124  133 1   
   135  134  135 1   
   136  134  140 1   
   137  135  136 1   
   138  135  138 1   
   139  135  141 1   
   140  136  137 2   
   141  136  148 1   
   142  138  139 1   
   143  138  142 1   
   144  138  143 1   
   145  139  140 1   
   146  139  144 1   
   147  139  145 1   
   148  140  146 1   
   149  140  147 1   
   150  148  149 1   
   151  148  157 1   
   152  149  150 1   
   153  149  152 1   
   154  149  158 1   
   155  150  151 2   
   156  150  163 1   
   157  152  153 1   
   158  152  159 1   
   159  152  160 1   
   160  153  154 1   
   161  153  161 1   
   162  153  162 1   
   163  154  155 1   
   164  154  156 1   
   165  163  164 1   
   166  163  168 1   
   167  164  165 1   
   168  164  166 1   
   169  164  167 1   
   170  170  171 1   
   171  170  172 1   
   172  173  174 1   
   173  173  175 1   
   174  176  177 1   
   175  176  178 1   
@<TRIPOS>SUBSTRUCTURE
     1 MOL         1 TEMP              0 ****  ****    0 ROOT
