@<TRIPOS>MOLECULE
MOL
  181   177     1     0     0
SMALL
resp


@<TRIPOS>ATOM
      1 C1         -3.1860    5.9250    4.1330 c3        1 MOL     -0.394976
      2 C2         -3.4850    4.4260    3.8810 c         1 MOL      0.626797
      3 O1         -2.9540    3.5010    4.5520 o         1 MOL     -0.596441
      4 H1         -4.1180    6.4500    4.3450 hc        1 MOL      0.111571
      5 H2         -2.5130    6.0240    4.9860 hc        1 MOL      0.111571
      6 H3         -2.7190    6.3580    3.2480 hc        1 MOL      0.111571
      7 N1         -4.2340    3.9720    2.8550 n         1 MOL     -0.390268
      8 C3         -5.1020    4.6190    1.8840 c3        1 MOL      0.105332
      9 C4         -4.7490    4.1160    0.4200 c         1 MOL      0.378387
     10 O2         -4.6680    2.9260    0.2370 o         1 MOL     -0.435334
     11 C5         -6.5860    4.3630    2.2020 c3        1 MOL     -0.289768
     12 C6         -7.0380    3.0660    2.8350 c         1 MOL      0.735208
     13 O3         -6.3360    2.0530    2.8090 o         1 MOL     -0.685389
     14 O4         -8.1230    3.0500    3.4590 o         1 MOL     -0.685389
     15 H4         -4.2670    2.9640    2.9290 hn        1 MOL      0.281246
     16 H5         -4.8480    5.6730    1.9230 h1        1 MOL      0.021554
     17 H6         -7.1740    4.5940    1.3120 hc        1 MOL      0.069067
     18 H7         -6.8930    5.1050    2.9490 hc        1 MOL      0.069067
     19 N2         -4.5260    5.0430   -0.5050 n         1 MOL     -0.442700
     20 C7         -4.2070    5.0160   -1.9320 c3        1 MOL      0.222287
     21 C8         -5.2920    4.3040   -2.7850 c         1 MOL      0.342307
     22 O5         -5.7540    4.7830   -3.8230 o         1 MOL     -0.525667
     23 C9         -2.7550    4.4960   -1.9970 c3        1 MOL     -0.344532
     24 H8         -4.5820    6.0160   -0.2420 hn        1 MOL      0.299355
     25 H9         -4.2400    6.0690   -2.2150 h1        1 MOL      0.022197
     26 H10        -2.0040    5.0920   -1.4810 hc        1 MOL      0.119574
     27 H11        -2.7250    3.5220   -1.5190 hc        1 MOL      0.119574
     28 H12        -2.4610    4.3180   -3.0320 hc        1 MOL      0.119574
     29 N3         -5.6510    3.1330   -2.2650 n         1 MOL     -0.028034
     30 C10        -6.5010    2.1190   -2.9820 c3        1 MOL     -0.130896
     31 C11        -7.4620    1.4030   -1.9870 c         1 MOL      0.546862
     32 O6         -7.2410    1.3710   -0.7850 o         1 MOL     -0.527755
     33 C12        -5.6200    1.1640   -3.8610 c3        1 MOL      0.020537
     34 C13        -4.6080    0.3400   -3.0500 c         1 MOL      0.594358
     35 O7         -4.7150    0.2500   -1.8060 o         1 MOL     -0.644878
     36 O8         -3.5840   -0.0980   -3.6630 o         1 MOL     -0.644878
     37 H13        -5.2690    2.8460   -1.3780 hn        1 MOL      0.008353
     38 H14        -7.0940    2.5850   -3.7720 h1        1 MOL      0.068860
     39 H15        -5.1620    1.6650   -4.7190 hc        1 MOL      0.010486
     40 H16        -6.1080    0.3190   -4.3410 hc        1 MOL      0.010486
     41 N4         -8.5160    0.7380   -2.4940 n         1 MOL     -0.493128
     42 C14        -9.4980   -0.0690   -1.6800 c3        1 MOL     -0.146941
     43 C15        -9.0650   -1.4440   -1.2160 c         1 MOL      0.470899
     44 O9         -9.6610   -2.0090   -0.2770 o         1 MOL     -0.568482
     45 H17        -8.5390    0.6450   -3.4930 hn        1 MOL      0.309813
     46 H18       -10.4490   -0.2100   -2.2000 h1        1 MOL      0.146025
     47 H19        -9.8170    0.5330   -0.8260 h1        1 MOL      0.146025
     48 N5         -7.9410   -1.9530   -1.7620 n         1 MOL     -0.385412
     49 C16        -7.2410   -3.1770   -1.4030 c3        1 MOL      0.190577
     50 C17        -6.0620   -2.9570   -0.4210 c         1 MOL      0.492872
     51 O10        -5.6090   -1.8490   -0.1760 o         1 MOL     -0.449185
     52 C18        -6.8700   -3.8660   -2.7290 c3        1 MOL     -0.263824
     53 C19        -7.9750   -4.0500   -3.8340 c         1 MOL      0.682499
     54 N6         -8.6920   -5.1560   -3.8480 n         1 MOL     -0.772443
     55 O11        -8.2440   -3.1890   -4.6590 o         1 MOL     -0.553424
     56 H20        -7.5540   -1.4310   -2.5340 hn        1 MOL      0.273077
     57 H21        -7.9830   -3.8250   -0.9350 h1        1 MOL      0.036617
     58 H22        -6.2940   -4.7670   -2.5000 hc        1 MOL      0.091328
     59 H23        -6.1850   -3.2110   -3.2730 hc        1 MOL      0.091328
     60 H24        -8.8170   -5.7830   -3.0650 hn        1 MOL      0.346546
     61 H25        -9.4660   -5.1560   -4.5020 hn        1 MOL      0.346546
     62 N7         -5.5670   -4.0170    0.1770 n         1 MOL     -0.695819
     63 C20        -4.1570   -3.9750    0.7880 c3        1 MOL      0.216994
     64 C21        -3.0870   -4.0020   -0.2750 c         1 MOL      0.546778
     65 O12        -3.3970   -4.0920   -1.4860 o         1 MOL     -0.543131
     66 H26        -5.8150   -4.9490   -0.1180 hn        1 MOL      0.362755
     67 H27        -3.9980   -4.7630    1.5270 h1        1 MOL      0.037479
     68 H28        -4.0290   -3.0730    1.3920 h1        1 MOL      0.037479
     69 N8         -1.8210   -4.0330    0.1060 n         1 MOL     -0.489221
     70 C22        -1.1520   -3.9990    1.4350 c3        1 MOL     -0.195653
     71 C23         0.2380   -3.3170    1.3580 c         1 MOL      0.635971
     72 O13         1.0780   -3.7920    0.5360 o         1 MOL     -0.498453
     73 C24        -1.0390   -5.4120    2.0990 c3        1 MOL      0.387537
     74 C25        -0.9510   -5.3440    3.6190 c3        1 MOL     -0.237711
     75 O14        -2.1790   -6.1410    1.8000 oh        1 MOL     -0.621028
     76 H29        -1.1350   -3.9920   -0.6400 hn        1 MOL      0.335029
     77 H30        -1.8090   -3.4300    2.0960 h1        1 MOL      0.115069
     78 H31        -0.1240   -5.8610    1.7210 h1        1 MOL      0.015740
     79 H32        -1.8320   -7.0420    1.7710 ho        1 MOL      0.395233
     80 H33        -1.0850   -6.3550    4.0080 hc        1 MOL      0.051911
     81 H34        -0.0700   -4.7960    3.9650 hc        1 MOL      0.051911
     82 H35        -1.8070   -4.7600    3.9570 hc        1 MOL      0.051911
     83 N9          0.5430   -2.2210    2.1550 n         1 MOL     -0.475214
     84 C26         1.9300   -1.6050    2.2870 c3        1 MOL      0.012149
     85 C27         2.9840   -2.5440    2.8830 c         1 MOL      0.649345
     86 O15         2.7730   -2.9400    3.9560 o         1 MOL     -0.618358
     87 C28         1.7810   -0.4070    3.1850 c3        1 MOL      0.140087
     88 C29         0.8680    0.6590    2.4400 c3        1 MOL      0.242720
     89 C30         3.1730    0.2360    3.5460 c3        1 MOL     -0.062923
     90 C31         0.2340    1.5880    3.4970 c3        1 MOL     -0.261422
     91 H36        -0.1220   -1.9370    2.8660 hn        1 MOL      0.238190
     92 H37         2.2600   -1.1290    1.3650 h1        1 MOL      0.048319
     93 H38         1.3330   -0.6560    4.1480 hc        1 MOL     -0.040128
     94 H39         0.0770    0.1060    1.9240 hc        1 MOL     -0.069268
     95 H40         1.4690    1.1860    1.6950 hc        1 MOL     -0.069268
     96 H41         3.0460    1.0670    4.2450 hc        1 MOL      0.011703
     97 H42         3.7680   -0.5060    4.0710 hc        1 MOL      0.011703
     98 H43         3.6900    0.5900    2.6560 hc        1 MOL      0.011703
     99 H44        -0.4870    2.2720    3.0530 hc        1 MOL      0.039270
    100 H45        -0.4030    1.0550    4.1960 hc        1 MOL      0.039270
    101 H46         1.0430    2.0020    4.1060 hc        1 MOL      0.039270
    102 N10         4.1180   -2.7840    2.2480 n         1 MOL     -0.516578
    103 C32         4.5150   -2.5900    0.8420 c3        1 MOL      0.304575
    104 C33         5.9560   -1.9050    0.7390 c         1 MOL      0.426203
    105 O16         6.5530   -1.6880    1.7840 o         1 MOL     -0.524434
    106 C34         4.5900   -3.8810    0.0320 c3        1 MOL     -0.292408
    107 C35         5.4040   -4.9090    0.6930 c         1 MOL      0.797988
    108 O17         5.6530   -5.9260    0.1210 o         1 MOL     -0.746678
    109 O18         5.9210   -4.8120    1.8510 o         1 MOL     -0.746678
    110 H47         4.7180   -3.3770    2.7990 hn        1 MOL      0.291843
    111 H48         3.7940   -1.9320    0.3590 h1        1 MOL     -0.000992
    112 H49         4.8530   -3.5750   -0.9770 hc        1 MOL      0.034991
    113 H50         3.6080   -4.3410    0.0530 hc        1 MOL      0.034991
    114 N11         6.4600   -1.7100   -0.5080 n         1 MOL     -0.485529
    115 C36         7.7900   -1.1090   -0.7730 c3        1 MOL      0.499926
    116 C37         7.8490   -0.2990   -2.1440 c         1 MOL      0.150999
    117 O19         7.3730   -0.8920   -3.1550 o         1 MOL     -0.488458
    118 C38         8.8800   -2.1890   -0.7830 c3        1 MOL     -0.415680
    119 C39        10.3510   -1.7310   -0.7060 ca        1 MOL      0.272101
    120 C40        11.1600   -1.7930   -1.8890 ca        1 MOL     -0.225967
    121 C41        10.9340   -1.2020    0.4520 ca        1 MOL     -0.225967
    122 C42        12.5120   -1.4100   -1.8410 ca        1 MOL     -0.079275
    123 C43        12.2940   -0.8960    0.4860 ca        1 MOL     -0.079275
    124 C44        13.0910   -0.9970   -0.7020 ca        1 MOL     -0.175494
    125 H51         5.9140   -1.8820   -1.3410 hn        1 MOL      0.340872
    126 H52         8.1090   -0.4640    0.0480 h1        1 MOL     -0.019519
    127 H53         8.7270   -2.8250   -1.6540 hc        1 MOL      0.119194
    128 H54         8.6690   -2.8120    0.0900 hc        1 MOL      0.119194
    129 H55        10.6970   -2.1250   -2.7960 ha        1 MOL      0.143933
    130 H56        10.3840   -1.0810    1.3690 ha        1 MOL      0.143933
    131 H57        13.1570   -1.3720   -2.7030 ha        1 MOL      0.086933
    132 H58        12.7340   -0.3390    1.3030 ha        1 MOL      0.086933
    133 H59        14.0930   -0.5900   -0.6790 ha        1 MOL      0.100745
    134 N12         8.4670    0.8740   -2.3180 n         1 MOL      0.022374
    135 C45         9.1080    1.5920   -1.2760 c3        1 MOL      0.026123
    136 C46         8.1390    2.4400   -0.4470 c         1 MOL      0.432861
    137 O20         8.2700    2.4490    0.7910 o         1 MOL     -0.548066
    138 C47        10.2090    2.3080   -1.9620 c3        1 MOL     -0.075935
    139 C48         9.6460    2.5080   -3.3560 c3        1 MOL     -0.099539
    140 C49         8.8380    1.3090   -3.6340 c3        1 MOL     -0.037215
    141 H60         9.5360    0.8200   -0.6290 h1        1 MOL      0.046830
    142 H61        10.4660    3.2600   -1.4980 hc        1 MOL      0.036484
    143 H62        11.0610    1.6520   -1.8170 hc        1 MOL      0.036484
    144 H63         9.1530    3.4770   -3.4400 hc        1 MOL      0.033812
    145 H64        10.4670    2.4310   -4.0640 hc        1 MOL      0.033812
    146 H65         7.9590    1.6340   -4.1980 h1        1 MOL      0.056358
    147 H66         9.2990    0.5140   -4.2110 h1        1 MOL      0.056358
    148 N13         7.1750    3.0960   -1.0750 n         1 MOL     -0.414055
    149 C50         6.0690    3.7260   -0.3710 c3        1 MOL      0.267926
    150 C51         6.0530    5.2250   -0.6500 c         1 MOL      0.291603
    151 O21         5.5430    5.6460   -1.6780 o         1 MOL     -0.546732
    152 C52         4.7180    3.0810   -0.7360 c3        1 MOL     -0.134921
    153 C53         4.6410    1.7190   -0.0160 c3        1 MOL     -0.316853
    154 C54         3.6970    0.7810   -0.7600 c         1 MOL      0.857056
    155 O22         4.1460   -0.1560   -1.4840 o         1 MOL     -0.729741
    156 O23         2.5010    1.0470   -0.8690 o         1 MOL     -0.729741
    157 H67         7.1490    2.9530   -2.0680 hn        1 MOL      0.299803
    158 H68         6.2560    3.6140    0.7020 h1        1 MOL      0.098881
    159 H69         4.6920    2.8150   -1.7880 hc        1 MOL      0.063085
    160 H70         3.7930    3.6200   -0.5680 hc        1 MOL      0.063085
    161 H71         4.3100    1.8440    1.0180 hc        1 MOL      0.038069
    162 H72         5.6590    1.3420   -0.0180 hc        1 MOL      0.038069
    163 N14         6.5430    6.0400    0.2370 n         1 MOL     -0.233322
    164 C55         7.1470    5.8330    1.5060 c3        1 MOL     -0.125629
    165 H73         8.2170    6.0320    1.4360 h1        1 MOL      0.066692
    166 H74         6.6990    6.5080    2.2360 h1        1 MOL      0.066692
    167 H75         6.9900    4.8010    1.8200 h1        1 MOL      0.066692
    168 H76         6.5380    7.0110   -0.0410 hn        1 MOL      0.236986
    169 Ca1        -5.2600    0.5050    0.8760 Ca        1 MOL      1.674213
    170 O24        -4.9940   -0.7080    3.1210 oh        1 MOL     -0.810085
    171 H77        -4.8970   -1.6390    3.3550 ho        1 MOL      0.398850
    172 H78        -5.6770   -0.3830    3.7080 ho        1 MOL      0.398850
    173 O25        -3.0360   -0.7060   -0.0540 oh        1 MOL     -0.810085
    174 H79        -3.3150   -0.9910   -0.9250 ho        1 MOL      0.398850
    175 H80        -2.1150   -0.4700   -0.1570 ho        1 MOL      0.398850
    176 O26        -7.7780   -0.4880    1.7430 oh        1 MOL     -0.810085
    177 H81        -8.0310   -1.4080    1.6090 ho        1 MOL      0.398850
    178 H82        -8.5370   -0.0890    2.1600 ho        1 MOL      0.398850
    179 O27        -3.1130    1.3770    1.9910 oh        1 MOL     -0.810085
    180 H83        -2.3650    1.6380    1.4600 ho        1 MOL      0.398850
    181 H84        -2.8600    1.6010    2.8920 ho        1 MOL      0.398850
@<TRIPOS>BOND
     1    1    2 1   
     2    1    4 1   
     3    1    5 1   
     4    1    6 1   
     5    2    3 2   
     6    2    7 1   
     7    7    8 1   
     8    7   15 1   
     9    8    9 1   
    10    8   11 1   
    11    8   16 1   
    12    9   10 2   
    13    9   19 1   
    14   11   12 1   
    15   11   17 1   
    16   11   18 1   
    17   12   13 1   
    18   12   14 1   
    19   19   20 1   
    20   19   24 1   
    21   20   21 1   
    22   20   23 1   
    23   20   25 1   
    24   21   22 2   
    25   21   29 1   
    26   23   26 1   
    27   23   27 1   
    28   23   28 1   
    29   29   30 1   
    30   29   37 1   
    31   30   31 1   
    32   30   33 1   
    33   30   38 1   
    34   31   32 2   
    35   31   41 1   
    36   33   34 1   
    37   33   39 1   
    38   33   40 1   
    39   34   35 1   
    40   34   36 1   
    41   41   42 1   
    42   41   45 1   
    43   42   43 1   
    44   42   46 1   
    45   42   47 1   
    46   43   44 2   
    47   43   48 1   
    48   48   49 1   
    49   48   56 1   
    50   49   50 1   
    51   49   52 1   
    52   49   57 1   
    53   50   51 2   
    54   50   62 1   
    55   52   53 1   
    56   52   58 1   
    57   52   59 1   
    58   53   54 1   
    59   53   55 2   
    60   54   60 1   
    61   54   61 1   
    62   62   63 1   
    63   62   66 1   
    64   63   64 1   
    65   63   67 1   
    66   63   68 1   
    67   64   65 2   
    68   64   69 1   
    69   69   70 1   
    70   69   76 1   
    71   70   71 1   
    72   70   73 1   
    73   70   77 1   
    74   71   72 2   
    75   71   83 1   
    76   73   74 1   
    77   73   75 1   
    78   73   78 1   
    79   74   80 1   
    80   74   81 1   
    81   74   82 1   
    82   75   79 1   
    83   83   84 1   
    84   83   91 1   
    85   84   85 1   
    86   84   87 1   
    87   84   92 1   
    88   85   86 2   
    89   85  102 1   
    90   87   88 1   
    91   87   89 1   
    92   87   93 1   
    93   88   90 1   
    94   88   94 1   
    95   88   95 1   
    96   89   96 1   
    97   89   97 1   
    98   89   98 1   
    99   90   99 1   
   100   90  100 1   
   101   90  101 1   
   102  102  103 1   
   103  102  110 1   
   104  103  104 1   
   105  103  106 1   
   106  103  111 1   
   107  104  105 2   
   108  104  114 1   
   109  106  107 1   
   110  106  112 1   
   111  106  113 1   
   112  107  108 1   
   113  107  109 1   
   114  114  115 1   
   115  114  125 1   
   116  115  116 1   
   117  115  118 1   
   118  115  126 1   
   119  116  117 2   
   120  116  134 1   
   121  118  119 1   
   122  118  127 1   
   123  118  128 1   
   124  119  120 ar  
   125  119  121 ar  
   126  120  122 ar  
   127  120  129 1   
   128  121  123 ar  
   129  121  130 1   
   130  122  124 ar  
   131  122  131 1   
   132  123  124 ar  
   133  123  132 1   
   134  124  133 1   
   135  134  135 1   
   136  134  140 1   
   137  135  136 1   
   138  135  138 1   
   139  135  141 1   
   140  136  137 2   
   141  136  148 1   
   142  138  139 1   
   143  138  142 1   
   144  138  143 1   
   145  139  140 1   
   146  139  144 1   
   147  139  145 1   
   148  140  146 1   
   149  140  147 1   
   150  148  149 1   
   151  148  157 1   
   152  149  150 1   
   153  149  152 1   
   154  149  158 1   
   155  150  151 2   
   156  150  163 1   
   157  152  153 1   
   158  152  159 1   
   159  152  160 1   
   160  153  154 1   
   161  153  161 1   
   162  153  162 1   
   163  154  155 1   
   164  154  156 1   
   165  163  164 1   
   166  163  168 1   
   167  164  165 1   
   168  164  166 1   
   169  164  167 1   
   170  170  171 1   
   171  170  172 1   
   172  173  174 1   
   173  173  175 1   
   174  176  177 1   
   175  176  178 1   
   176  179  180 1   
   177  179  181 1   
@<TRIPOS>SUBSTRUCTURE
     1 MOL         1 TEMP              0 ****  ****    0 ROOT
