@<TRIPOS>MOLECULE
MOL
  192   187     1     0     0
SMALL
resp


@<TRIPOS>ATOM
      1 C1          4.5610   -6.2570   -2.1550 c3        1 MOL     -0.190229
      2 C2          4.3020   -4.9750   -1.3820 c         1 MOL      0.589490
      3 O1          3.7870   -4.8780   -0.2370 o         1 MOL     -0.534079
      4 H1          4.5970   -6.0360   -3.2210 hc        1 MOL      0.045906
      5 H2          5.5130   -6.6840   -1.8410 hc        1 MOL      0.045906
      6 H3          3.7600   -6.9690   -1.9580 hc        1 MOL      0.045906
      7 N1          4.7470   -3.9020   -2.0510 n         1 MOL     -0.326003
      8 C3          4.5460   -2.5420   -1.6120 c3        1 MOL     -0.072078
      9 C4          3.1080   -2.0940   -1.5000 c         1 MOL      0.387208
     10 O2          2.8180   -1.3350   -0.6250 o         1 MOL     -0.446006
     11 C5          5.2270   -1.5520   -2.5730 c3        1 MOL     -0.014045
     12 C6          4.8740   -1.9670   -4.0260 c         1 MOL      0.596069
     13 O3          4.0520   -1.2480   -4.6800 o         1 MOL     -0.648110
     14 O4          5.6020   -2.8660   -4.5910 o         1 MOL     -0.648110
     15 H4          5.2790   -4.0310   -2.8940 hn        1 MOL      0.213761
     16 H5          4.9080   -2.5140   -0.5890 h1        1 MOL      0.084889
     17 H6          6.3000   -1.3740   -2.4760 hc        1 MOL      0.020225
     18 H7          4.7950   -0.5650   -2.4010 hc        1 MOL      0.020225
     19 N2          2.1100   -2.6690   -2.2600 n         1 MOL     -0.342126
     20 C7          0.7200   -2.4910   -2.0060 c3        1 MOL      0.017990
     21 C8          0.2770   -3.1090   -0.6560 c         1 MOL      0.467823
     22 O5          0.7450   -4.1240   -0.2390 o         1 MOL     -0.488195
     23 C9         -0.0730   -3.0860   -3.1510 c3        1 MOL      0.224802
     24 C10         0.2180   -2.5080   -4.5720 c3        1 MOL      0.001645
     25 C11        -0.8460   -2.4240   -5.6400 c3        1 MOL      0.069256
     26 C12        -0.5250   -1.6070   -6.9090 c3        1 MOL      0.011240
     27 N3         -1.6880   -1.6390   -7.8630 n4        1 MOL     -0.362307
     28 H8          2.3410   -3.4590   -2.8430 hn        1 MOL      0.266391
     29 H9          0.5400   -1.4180   -1.9410 h1        1 MOL      0.089694
     30 H10        -1.1530   -2.9460   -3.0510 hc        1 MOL     -0.048749
     31 H11         0.0770   -4.1610   -3.2510 hc        1 MOL     -0.048749
     32 H12         1.0940   -3.0120   -5.0090 hc        1 MOL     -0.026267
     33 H13         0.6170   -1.5030   -4.5310 hc        1 MOL     -0.026267
     34 H14        -1.7860   -2.0340   -5.2470 hc        1 MOL     -0.010400
     35 H15        -1.1560   -3.4390   -5.9090 hc        1 MOL     -0.010400
     36 H16         0.3150   -2.0210   -7.4740 hx        1 MOL      0.109195
     37 H17        -0.3930   -0.5760   -6.6110 hx        1 MOL      0.109195
     38 H18        -1.8900   -0.7660   -8.3290 hn        1 MOL      0.327681
     39 H19        -1.5580   -2.4650   -8.4440 hn        1 MOL      0.327681
     40 H20        -2.4790   -1.9010   -7.3050 hn        1 MOL      0.327681
     41 N4         -0.6820   -2.5000    0.0820 n         1 MOL     -0.525347
     42 C13        -1.4650   -1.2300   -0.1120 c3        1 MOL      0.162746
     43 C14        -1.9760   -0.8450   -1.5410 c         1 MOL      0.415459
     44 O6         -1.3900   -0.0660   -2.3040 o         1 MOL     -0.556609
     45 C15        -0.7620   -0.1170    0.7010 c3        1 MOL     -0.175752
     46 C16        -0.4420   -0.4420    2.1570 c         1 MOL      0.608329
     47 O7         -0.6430   -1.5710    2.6680 o         1 MOL     -0.708495
     48 O8         -0.0110    0.4400    2.8930 o         1 MOL     -0.708495
     49 H21        -0.7820   -2.9370    0.9850 hn        1 MOL      0.306294
     50 H22        -2.3290   -1.5290    0.4740 h1        1 MOL      0.047407
     51 H23        -1.3760    0.7590    0.5140 hc        1 MOL      0.048572
     52 H24         0.1780    0.1890    0.2460 hc        1 MOL      0.048572
     53 N5         -3.0270   -1.4100   -2.0160 n         1 MOL     -0.250481
     54 C17        -4.0360   -2.2760   -1.3290 c3        1 MOL     -0.043337
     55 C18        -5.2590   -2.6510   -2.2230 c         1 MOL      0.588501
     56 O9         -5.1400   -2.5290   -3.4420 o         1 MOL     -0.597761
     57 H25        -3.2520   -1.2260   -2.9810 hn        1 MOL      0.254245
     58 H26        -4.4330   -1.6100   -0.5600 h1        1 MOL      0.038760
     59 H27        -3.5750   -3.1670   -0.9050 h1        1 MOL      0.038760
     60 N6         -6.2960   -3.2070   -1.6320 n         1 MOL     -0.415571
     61 C19        -6.5220   -3.4160   -0.1830 c3        1 MOL     -0.029828
     62 C20        -7.1000   -2.0640    0.5180 c         1 MOL      0.522444
     63 O10        -7.4380   -1.0930   -0.1490 o         1 MOL     -0.450711
     64 C21        -7.4720   -4.6160   -0.0200 c3        1 MOL     -0.126367
     65 C22        -8.9330   -4.3980   -0.5060 c         1 MOL      0.705210
     66 O11        -9.7830   -3.9500    0.3310 o         1 MOL     -0.669331
     67 O12        -9.1980   -4.8050   -1.6520 o         1 MOL     -0.669331
     68 H28        -7.0180   -3.5810   -2.2370 hn        1 MOL      0.297519
     69 H29        -5.6160   -3.7310    0.3320 h1        1 MOL      0.049848
     70 H30        -7.4520   -4.9360    1.0230 hc        1 MOL      0.012009
     71 H31        -7.0160   -5.4190   -0.6150 hc        1 MOL      0.012009
     72 N7         -7.0220   -2.1180    1.8490 n         1 MOL     -0.456895
     73 C23        -7.4730   -1.0270    2.7520 c3        1 MOL     -0.068579
     74 C24        -6.6650    0.2940    2.6870 c         1 MOL      0.528571
     75 O13        -7.3070    1.3010    2.6700 o         1 MOL     -0.566973
     76 H32        -6.7320   -3.0320    2.1910 hn        1 MOL      0.284848
     77 H33        -7.4120   -1.3500    3.7940 h1        1 MOL      0.101858
     78 H34        -8.5360   -0.8260    2.6190 h1        1 MOL      0.101858
     79 N8         -5.3830    0.2730    2.5960 n         1 MOL     -0.386161
     80 C25        -4.5420    1.4510    2.3870 c3        1 MOL      0.015763
     81 C26        -4.3340    1.6910    0.9310 c         1 MOL      0.641339
     82 O14        -4.4090    0.7790    0.0900 o         1 MOL     -0.446337
     83 C27        -3.2540    1.2630    3.2100 c3        1 MOL      0.316590
     84 C28        -3.5100    1.4110    4.6910 c3        1 MOL     -0.178448
     85 O15        -2.2990    2.1390    2.8080 oh        1 MOL     -0.708077
     86 H35        -4.8980   -0.6160    2.6040 hn        1 MOL      0.201088
     87 H36        -5.1500    2.2930    2.7210 h1        1 MOL      0.093441
     88 H37        -2.7810    0.3080    2.9670 h1        1 MOL     -0.015944
     89 H38        -1.4670    1.6730    2.8440 ho        1 MOL      0.490810
     90 H39        -2.7180    1.1020    5.3760 hc        1 MOL      0.029644
     91 H40        -3.6790    2.4670    4.8950 hc        1 MOL      0.029644
     92 H41        -4.3920    0.8880    5.0370 hc        1 MOL      0.029644
     93 N9         -4.1300    2.9840    0.6440 n         1 MOL     -0.627855
     94 C29        -4.4060    3.7010   -0.6380 c3        1 MOL     -0.058872
     95 C30        -3.1970    3.7600   -1.5530 c         1 MOL      0.445836
     96 O16        -3.4390    3.6960   -2.7370 o         1 MOL     -0.549896
     97 C31        -5.0000    5.1160   -0.2180 c3        1 MOL      0.058870
     98 C32        -6.3150    4.9060    0.5110 c3        1 MOL      0.060042
     99 C33        -5.0930    6.0530   -1.3910 c3        1 MOL     -0.290322
    100 C34        -6.9580    6.1590    1.1500 c3        1 MOL     -0.235652
    101 H42        -3.8990    3.5570    1.4390 hn        1 MOL      0.332697
    102 H43        -5.2330    3.2020   -1.1460 h1        1 MOL      0.116888
    103 H44        -4.2470    5.4990    0.4630 hc        1 MOL     -0.009596
    104 H45        -6.1280    4.2630    1.3730 hc        1 MOL      0.055911
    105 H46        -7.0930    4.5080   -0.1330 hc        1 MOL      0.055911
    106 H47        -5.7370    6.9210   -1.2260 hc        1 MOL      0.083596
    107 H48        -4.1470    6.4720   -1.7370 hc        1 MOL      0.083596
    108 H49        -5.6090    5.5640   -2.2190 hc        1 MOL      0.083596
    109 H50        -7.9750    5.8710    1.4080 hc        1 MOL      0.052675
    110 H51        -6.4610    6.3140    2.1110 hc        1 MOL      0.052675
    111 H52        -6.9850    7.0360    0.5000 hc        1 MOL      0.052675
    112 N10        -2.0410    3.9550   -1.0040 n         1 MOL      0.053560
    113 C35        -0.8070    4.1360   -1.7400 c3        1 MOL     -0.140278
    114 C36         0.2470    3.0860   -1.2970 c         1 MOL      0.568385
    115 O17         0.3910    2.6650   -0.1400 o         1 MOL     -0.567954
    116 C37        -0.2290    5.5670   -1.5960 c3        1 MOL      0.243538
    117 C38         0.1200    6.0800   -0.1470 c3        1 MOL     -0.297739
    118 O18        -1.2400    6.4030   -2.1680 oh        1 MOL     -0.606600
    119 H53        -1.9880    4.0860   -0.0010 hn        1 MOL      0.161799
    120 H54        -1.0090    3.9400   -2.7920 h1        1 MOL      0.066908
    121 H55         0.6550    5.6300   -2.2150 h1        1 MOL      0.006455
    122 H56        -1.1870    6.3910   -3.1300 ho        1 MOL      0.396142
    123 H57         1.0440    5.7090    0.2720 hc        1 MOL      0.096590
    124 H58         0.1200    7.1540    0.0520 hc        1 MOL      0.096590
    125 H59        -0.6970    5.6450    0.4350 hc        1 MOL      0.096590
    126 N11         0.9920    2.5640   -2.2490 n         1 MOL     -0.558376
    127 C39         2.1790    1.7740   -2.0130 c3        1 MOL      0.010446
    128 C40         3.0610    2.3680   -0.9300 c         1 MOL      0.648852
    129 O19         3.1930    3.5610   -0.7110 o         1 MOL     -0.572578
    130 C41         2.9760    1.4870   -3.3170 c3        1 MOL      0.265259
    131 C42         3.3210    2.7280   -4.0920 c3        1 MOL     -0.243813
    132 O20         2.1590    0.6740   -4.1390 oh        1 MOL     -0.594183
    133 H60         0.6480    2.5980   -3.2030 hn        1 MOL      0.370888
    134 H61         1.8420    0.8730   -1.5070 h1        1 MOL      0.103515
    135 H62         3.9040    0.9970   -3.0430 h1        1 MOL      0.061699
    136 H63         2.6840   -0.1190   -4.2520 ho        1 MOL      0.345215
    137 H64         3.8050    3.4720   -3.4620 hc        1 MOL      0.051635
    138 H65         3.8650    2.6140   -5.0250 hc        1 MOL      0.051635
    139 H66         2.3680    3.1810   -4.3550 hc        1 MOL      0.051635
    140 N12         4.0050    1.5560   -0.3910 n         1 MOL     -0.511052
    141 C43         5.1490    2.0090    0.4170 c3        1 MOL      0.056596
    142 C44         5.4760    1.0250    1.6010 c         1 MOL      0.382231
    143 O21         6.4490    1.3020    2.4020 o         1 MOL     -0.608793
    144 C45         6.3590    2.0650   -0.5310 c3        1 MOL      0.175838
    145 C46         7.5400    3.0060   -0.1980 c3        1 MOL     -0.069657
    146 C47         7.2360    4.5270   -0.2560 c3        1 MOL     -0.224127
    147 C48         6.5430    5.0330   -1.4950 c3        1 MOL      0.288372
    148 N13         6.6970    6.4880   -1.5960 n4        1 MOL     -0.458231
    149 H67         3.8200    0.5820   -0.5710 hn        1 MOL      0.261560
    150 H68         5.0110    3.0160    0.7900 h1        1 MOL      0.078930
    151 H69         6.0310    2.3520   -1.5270 hc        1 MOL     -0.027626
    152 H70         6.8240    1.0840   -0.6590 hc        1 MOL     -0.027626
    153 H71         8.3540    2.6350   -0.8180 hc        1 MOL      0.057961
    154 H72         7.8610    2.8000    0.8340 hc        1 MOL      0.057961
    155 H73         8.1840    5.0660   -0.1320 hc        1 MOL      0.070681
    156 H74         6.5860    4.7620    0.5810 hc        1 MOL      0.070681
    157 H75         5.5030    4.7920   -1.2830 hx        1 MOL      0.009325
    158 H76         6.9070    4.5140   -2.3820 hx        1 MOL      0.009325
    159 H77         6.2430    6.9700   -0.8340 hn        1 MOL      0.320058
    160 H78         7.6450    6.8260   -1.7050 hn        1 MOL      0.320058
    161 H79         6.1840    6.8510   -2.3820 hn        1 MOL      0.320058
    162 N14         4.7790   -0.0600    1.7240 n         1 MOL     -0.178502
    163 C49         5.0400   -1.0630    2.8250 c3        1 MOL     -0.143713
    164 C50         6.3380   -1.8370    2.5210 c         1 MOL      0.650567
    165 O22         6.5010   -2.3030    1.4170 o         1 MOL     -0.536311
    166 C51         3.8300   -2.0420    2.8220 c3        1 MOL      0.043260
    167 C52         3.8790   -3.1640    3.9170 c3        1 MOL     -0.725022
    168 C53         3.9240   -2.3780    5.2830 c         1 MOL      0.942618
    169 O23         2.8350   -2.1420    5.8220 o         1 MOL     -0.803725
    170 O24         5.0470   -2.0890    5.7920 o         1 MOL     -0.803725
    171 H80         4.0680   -0.2550    1.0300 hn        1 MOL      0.152291
    172 H81         5.1090   -0.5920    3.8050 h1        1 MOL      0.139303
    173 H82         3.5880   -2.5450    1.8890 hc        1 MOL      0.077334
    174 H83         3.0020   -1.3620    3.0240 hc        1 MOL      0.077334
    175 H84         4.7790   -3.7630    3.8620 hc        1 MOL      0.199199
    176 H85         2.9540   -3.7400    3.9590 hc        1 MOL      0.199199
    177 N15         7.2210   -1.8960    3.5130 n         1 MOL     -0.411497
    178 C54         8.5930   -2.4390    3.2470 c3        1 MOL     -0.074513
    179 H86         8.9260   -2.1180    2.2600 h1        1 MOL      0.066565
    180 H87         9.2840   -2.0680    4.0030 h1        1 MOL      0.066565
    181 H88         8.5670   -3.5280    3.2830 h1        1 MOL      0.066565
    182 H89         7.0410   -1.4830    4.4180 hn        1 MOL      0.368205
    183 Ca1         0.6210   -0.9330    5.0110 Ca        1 MOL      1.724602
    184 O25        -1.8920   -1.6410    5.4660 oh        1 MOL     -0.899749
    185 H90        -2.0460   -2.5400    5.1880 ho        1 MOL      0.449474
    186 H91        -2.6630   -1.4170    5.9860 ho        1 MOL      0.449474
    187 O26         2.6850    0.7170    4.6490 oh        1 MOL     -0.899749
    188 H92         2.4850    1.2940    3.9090 ho        1 MOL      0.449474
    189 H93         3.4980    1.0630    5.0100 ho        1 MOL      0.449474
    190 O27        -0.0990    1.3750    5.8920 oh        1 MOL     -0.899749
    191 H94         0.0740    2.3170    5.8740 ho        1 MOL      0.449474
    192 H95        -0.5470    1.2320    6.7300 ho        1 MOL      0.449474
@<TRIPOS>BOND
     1    1    2 1   
     2    1    4 1   
     3    1    5 1   
     4    1    6 1   
     5    2    3 2   
     6    2    7 1   
     7    7    8 1   
     8    7   15 1   
     9    8    9 1   
    10    8   11 1   
    11    8   16 1   
    12    9   10 2   
    13    9   19 1   
    14   11   12 1   
    15   11   17 1   
    16   11   18 1   
    17   12   13 1   
    18   12   14 1   
    19   19   20 1   
    20   19   28 1   
    21   20   21 1   
    22   20   23 1   
    23   20   29 1   
    24   21   22 2   
    25   21   41 1   
    26   23   24 1   
    27   23   30 1   
    28   23   31 1   
    29   24   25 1   
    30   24   32 1   
    31   24   33 1   
    32   25   26 1   
    33   25   34 1   
    34   25   35 1   
    35   26   27 1   
    36   26   36 1   
    37   26   37 1   
    38   27   38 1   
    39   27   39 1   
    40   27   40 1   
    41   41   42 1   
    42   41   49 1   
    43   42   43 1   
    44   42   45 1   
    45   42   50 1   
    46   43   44 2   
    47   43   53 1   
    48   45   46 1   
    49   45   51 1   
    50   45   52 1   
    51   46   47 1   
    52   46   48 1   
    53   53   54 1   
    54   53   57 1   
    55   54   55 1   
    56   54   58 1   
    57   54   59 1   
    58   55   56 2   
    59   55   60 1   
    60   60   61 1   
    61   60   68 1   
    62   61   62 1   
    63   61   64 1   
    64   61   69 1   
    65   62   63 2   
    66   62   72 1   
    67   64   65 1   
    68   64   70 1   
    69   64   71 1   
    70   65   66 1   
    71   65   67 1   
    72   72   73 1   
    73   72   76 1   
    74   73   74 1   
    75   73   77 1   
    76   73   78 1   
    77   74   75 2   
    78   74   79 1   
    79   79   80 1   
    80   79   86 1   
    81   80   81 1   
    82   80   83 1   
    83   80   87 1   
    84   81   82 2   
    85   81   93 1   
    86   83   84 1   
    87   83   85 1   
    88   83   88 1   
    89   84   90 1   
    90   84   91 1   
    91   84   92 1   
    92   85   89 1   
    93   93   94 1   
    94   93  101 1   
    95   94   95 1   
    96   94   97 1   
    97   94  102 1   
    98   95   96 2   
    99   95  112 1   
   100   97   98 1   
   101   97   99 1   
   102   97  103 1   
   103   98  100 1   
   104   98  104 1   
   105   98  105 1   
   106   99  106 1   
   107   99  107 1   
   108   99  108 1   
   109  100  109 1   
   110  100  110 1   
   111  100  111 1   
   112  112  113 1   
   113  112  119 1   
   114  113  114 1   
   115  113  116 1   
   116  113  120 1   
   117  114  115 2   
   118  114  126 1   
   119  116  117 1   
   120  116  118 1   
   121  116  121 1   
   122  117  123 1   
   123  117  124 1   
   124  117  125 1   
   125  118  122 1   
   126  126  127 1   
   127  126  133 1   
   128  127  128 1   
   129  127  130 1   
   130  127  134 1   
   131  128  129 2   
   132  128  140 1   
   133  130  131 1   
   134  130  132 1   
   135  130  135 1   
   136  131  137 1   
   137  131  138 1   
   138  131  139 1   
   139  132  136 1   
   140  140  141 1   
   141  140  149 1   
   142  141  142 1   
   143  141  144 1   
   144  141  150 1   
   145  142  143 2   
   146  142  162 1   
   147  144  145 1   
   148  144  151 1   
   149  144  152 1   
   150  145  146 1   
   151  145  153 1   
   152  145  154 1   
   153  146  147 1   
   154  146  155 1   
   155  146  156 1   
   156  147  148 1   
   157  147  157 1   
   158  147  158 1   
   159  148  159 1   
   160  148  160 1   
   161  148  161 1   
   162  162  163 1   
   163  162  171 1   
   164  163  164 1   
   165  163  166 1   
   166  163  172 1   
   167  164  165 2   
   168  164  177 1   
   169  166  167 1   
   170  166  173 1   
   171  166  174 1   
   172  167  168 1   
   173  167  175 1   
   174  167  176 1   
   175  168  169 1   
   176  168  170 1   
   177  177  178 1   
   178  177  182 1   
   179  178  179 1   
   180  178  180 1   
   181  178  181 1   
   182  184  185 1   
   183  184  186 1   
   184  187  188 1   
   185  187  189 1   
   186  190  191 1   
   187  190  192 1   
@<TRIPOS>SUBSTRUCTURE
     1 MOL         1 TEMP              0 ****  ****    0 ROOT
