@<TRIPOS>MOLECULE
MOL
  192   187     1     0     0
SMALL
resp


@<TRIPOS>ATOM
      1 C1          4.5450    3.7390   -4.0320 c3        1 MOL     -0.378206
      2 C2          5.2890    3.1580   -2.8710 c         1 MOL      0.857071
      3 O1          4.8130    3.1180   -1.7890 o         1 MOL     -0.649894
      4 H1          5.2560    4.0980   -4.7760 hc        1 MOL      0.092886
      5 H2          3.9100    2.9730   -4.4770 hc        1 MOL      0.092886
      6 H3          3.9270    4.5700   -3.6900 hc        1 MOL      0.092886
      7 N1          6.4480    2.5660   -3.1250 n         1 MOL     -0.786151
      8 C3          7.2300    1.6700   -2.2620 c3        1 MOL      0.125988
      9 C4          6.3530    0.5200   -1.7720 c         1 MOL      0.535450
     10 O2          6.0180    0.3080   -0.6100 o         1 MOL     -0.573659
     11 C5          8.0900    2.3890   -1.1560 c3        1 MOL     -0.060613
     12 C6          7.4680    3.5850   -0.4420 c         1 MOL      0.732939
     13 O3          6.8300    3.3650    0.6140 o         1 MOL     -0.728982
     14 O4          7.7640    4.7520   -0.7120 o         1 MOL     -0.728982
     15 H4          6.9710    2.8510   -3.9430 hn        1 MOL      0.354709
     16 H5          8.0360    1.2620   -2.8630 h1        1 MOL      0.073201
     17 H6          8.9920    2.6620   -1.6970 hc        1 MOL      0.002404
     18 H7          8.4520    1.6560   -0.4240 hc        1 MOL      0.002404
     19 N2          5.8620   -0.2590   -2.7750 n         1 MOL     -0.577818
     20 C7          5.0690   -1.4590   -2.6870 c3        1 MOL      0.149262
     21 C8          5.7840   -2.6660   -1.9280 c         1 MOL      0.359683
     22 O5          6.0520   -3.6660   -2.6130 o         1 MOL     -0.541985
     23 C9          3.5880   -1.2260   -2.2900 c3        1 MOL      0.338518
     24 C10         2.7770   -2.5040   -2.4430 c3        1 MOL     -0.046407
     25 C11         2.9710   -0.0870   -3.2470 c3        1 MOL      0.021937
     26 C12         2.8110   -3.2400   -3.8550 c3        1 MOL     -0.332238
     27 H8          6.0440    0.0830   -3.7080 hn        1 MOL      0.286301
     28 H9          4.9250   -1.7960   -3.7160 h1        1 MOL      0.028437
     29 H10         3.5370   -0.8380   -1.2780 hc        1 MOL     -0.164905
     30 H11         1.7780   -2.3280   -2.0390 hc        1 MOL      0.069752
     31 H12         3.1810   -3.2110   -1.7200 hc        1 MOL      0.069752
     32 H13         1.8980   -0.1050   -3.0530 hc        1 MOL     -0.034085
     33 H14         3.3060    0.9350   -3.0700 hc        1 MOL     -0.034085
     34 H15         3.1660   -0.3260   -4.2950 hc        1 MOL     -0.034085
     35 H16         3.8420   -3.5040   -4.0680 hc        1 MOL      0.069148
     36 H17         2.1480   -4.0900   -3.6830 hc        1 MOL      0.069148
     37 H18         2.3610   -2.6280   -4.6360 hc        1 MOL      0.069148
     38 N3          6.0800   -2.6010   -0.5940 n         1 MOL     -0.063125
     39 C13         6.7730   -3.5250    0.2670 c3        1 MOL     -0.079956
     40 C14         5.9710   -4.7440    0.8620 c         1 MOL      0.587984
     41 O6          6.4710   -5.8590    0.8270 o         1 MOL     -0.595808
     42 C15         7.5670   -2.8390    1.4100 c3        1 MOL     -0.237971
     43 C16         8.6390   -1.7800    0.9480 c         1 MOL      0.761656
     44 O7          8.4220   -0.6280    1.4680 o         1 MOL     -0.709547
     45 O8          9.6630   -2.0410    0.3340 o         1 MOL     -0.709547
     46 H19         5.8760   -1.7050   -0.1540 hn        1 MOL      0.200970
     47 H20         7.5090   -3.9620   -0.3910 h1        1 MOL      0.064240
     48 H21         8.0250   -3.6560    1.9720 hc        1 MOL      0.064028
     49 H22         6.8480   -2.2570    1.9850 hc        1 MOL      0.064028
     50 N4          4.7480   -4.6450    1.3500 n         1 MOL     -0.520223
     51 C17         3.8310   -3.4660    1.4590 c3        1 MOL      0.128974
     52 C18         2.6470   -3.8430    2.3300 c         1 MOL      0.671540
     53 O9          2.3070   -5.0240    2.4100 o         1 MOL     -0.601318
     54 H23         4.4180   -5.4680    1.8380 hn        1 MOL      0.304837
     55 H24         3.4300   -3.2090    0.4730 h1        1 MOL     -0.009440
     56 H25         4.3170   -2.5410    1.7470 h1        1 MOL     -0.009440
     57 N5          1.9940   -2.8960    3.0420 n         1 MOL     -0.415527
     58 C19         2.3180   -1.3800    3.1200 c3        1 MOL      0.064276
     59 C20         2.4230   -0.6730    1.7700 c         1 MOL      0.300318
     60 O10         3.4300   -0.1130    1.3530 o         1 MOL     -0.520331
     61 C21         3.4810   -1.0100    4.1160 c3        1 MOL     -0.327010
     62 C22         3.2790   -1.8100    5.4140 c         1 MOL      0.692095
     63 O11         2.1100   -1.9820    5.8220 o         1 MOL     -0.709478
     64 O12         4.2630   -2.3330    5.9590 o         1 MOL     -0.709478
     65 H26         1.0680   -3.1560    3.3540 hn        1 MOL      0.260621
     66 H27         1.4310   -0.9610    3.5950 h1        1 MOL      0.080138
     67 H28         3.5980    0.0550    4.3040 hc        1 MOL      0.102888
     68 H29         4.4500   -1.3320    3.7390 hc        1 MOL      0.102888
     69 N6          1.3180   -0.6840    0.9470 n         1 MOL     -0.165871
     70 C23         0.0530   -1.2580    1.2640 c3        1 MOL     -0.116461
     71 C24        -0.2390   -2.7070    0.8630 c         1 MOL      0.458141
     72 O13         0.6150   -3.3090    0.1970 o         1 MOL     -0.535073
     73 H30         1.3470   -0.2190    0.0560 hn        1 MOL      0.245188
     74 H31        -0.6880   -0.5800    0.8510 h1        1 MOL      0.068668
     75 H32        -0.0030   -1.2390    2.3500 h1        1 MOL      0.068668
     76 N7         -1.4570   -3.1790    1.0470 n         1 MOL     -0.257595
     77 C25        -1.9430   -4.4960    0.4970 c3        1 MOL     -0.067815
     78 C26        -2.5920   -4.3830   -0.9080 c         1 MOL      0.351940
     79 O14        -2.6940   -5.4120   -1.6170 o         1 MOL     -0.529844
     80 C27        -2.9510   -5.1850    1.4450 c3        1 MOL      0.052472
     81 C28        -4.1560   -4.4930    2.0710 c3        1 MOL      0.024323
     82 C29        -5.3360   -4.0890    1.2050 c         1 MOL      0.446970
     83 N8         -6.2220   -4.9940    0.8850 n         1 MOL     -0.580409
     84 O15        -5.3380   -2.9470    0.7920 o         1 MOL     -0.527602
     85 H33        -2.0510   -2.6890    1.6940 hn        1 MOL      0.219530
     86 H34        -1.1080   -5.1970    0.4730 h1        1 MOL      0.160292
     87 H35        -2.3460   -5.3980    2.3320 hc        1 MOL     -0.004469
     88 H36        -3.2620   -6.1520    1.0380 hc        1 MOL     -0.004469
     89 H37        -3.7560   -3.6000    2.5620 hc        1 MOL      0.012439
     90 H38        -4.5640   -5.0520    2.9120 hc        1 MOL      0.012439
     91 H39        -6.1290   -5.9040    1.3190 hn        1 MOL      0.315588
     92 H40        -7.0060   -4.7410    0.3000 hn        1 MOL      0.315588
     93 N9         -2.9290   -3.2160   -1.3820 n         1 MOL      0.033480
     94 C30        -3.2390   -2.9720   -2.8470 c3        1 MOL     -0.433505
     95 C31        -4.5650   -2.2380   -3.0880 c         1 MOL      0.641093
     96 O16        -5.0270   -2.1600   -4.2550 o         1 MOL     -0.590650
     97 C32        -2.1140   -2.1780   -3.5320 c3        1 MOL      0.287288
     98 C33        -0.9120   -3.0610   -3.6660 c3        1 MOL     -0.252782
     99 C34        -1.8030   -0.9340   -2.8260 c3        1 MOL     -0.252782
    100 H41        -2.8130   -2.4630   -0.7180 hn        1 MOL      0.133295
    101 H42        -3.2960   -3.9190   -3.3830 h1        1 MOL      0.179250
    102 H43        -2.4030   -1.8460   -4.5300 hc        1 MOL      0.010246
    103 H44        -0.1580   -2.5400   -4.2480 hc        1 MOL      0.062975
    104 H45        -0.5510   -3.2810   -2.6560 hc        1 MOL      0.062975
    105 H46        -1.1950   -4.0170   -4.0870 hc        1 MOL      0.062975
    106 H47        -0.9620   -0.5420   -3.4200 hc        1 MOL      0.062975
    107 H48        -2.5670   -0.1620   -2.8900 hc        1 MOL      0.062975
    108 H49        -1.4730   -1.0240   -1.7970 hc        1 MOL      0.062975
    109 N10        -5.1590   -1.6870   -2.0220 n         1 MOL     -0.420939
    110 C35        -6.5170   -1.0140   -2.1070 c3        1 MOL      0.033394
    111 C36        -6.5440    0.4160   -1.4940 c         1 MOL      0.666376
    112 O17        -7.3390    1.2370   -1.8980 o         1 MOL     -0.584028
    113 C37        -7.5560   -2.0460   -1.5150 c3        1 MOL     -0.490390
    114 C38        -7.6480   -3.3730   -2.1590 c         1 MOL      0.739425
    115 N11        -7.3920   -3.5950   -3.3880 n         1 MOL     -0.751868
    116 O18        -8.0510   -4.2750   -1.4770 o         1 MOL     -0.611147
    117 H50        -4.8110   -1.9560   -1.1120 hn        1 MOL      0.265535
    118 H51        -6.6190   -0.7510   -3.1590 h1        1 MOL      0.060370
    119 H52        -8.4990   -1.5050   -1.4120 hc        1 MOL      0.197426
    120 H53        -7.2230   -2.1820   -0.4920 hc        1 MOL      0.197426
    121 H54        -7.0930   -2.8180   -3.9700 hn        1 MOL      0.366490
    122 H55        -7.5030   -4.5080   -3.8000 hn        1 MOL      0.366490
    123 N12        -5.8430    0.6470   -0.3910 n         1 MOL     -0.689322
    124 C39        -5.9390    1.8860    0.4900 c3        1 MOL      0.559385
    125 C40        -4.5770    2.5600    0.5250 c         1 MOL      0.405839
    126 O19        -3.5350    1.8830    0.6600 o         1 MOL     -0.480227
    127 C41        -6.5500    1.4040    1.7770 c3        1 MOL     -0.203296
    128 C42        -7.9820    0.9780    1.7620 ca        1 MOL      0.039694
    129 C43        -8.9930    1.9170    1.9810 ca        1 MOL     -0.065969
    130 C44        -8.3040   -0.3200    1.4300 ca        1 MOL     -0.065969
    131 C45       -10.3530    1.5480    1.8830 ca        1 MOL     -0.322784
    132 C46        -9.6230   -0.7110    1.2800 ca        1 MOL     -0.322784
    133 C47       -10.6550    0.2020    1.5620 ca        1 MOL      0.343017
    134 O20       -11.9460   -0.3350    1.6910 oh        1 MOL     -0.473320
    135 H56        -5.2120   -0.0920   -0.1290 hn        1 MOL      0.244002
    136 H57        -6.6300    2.5740    0.0060 h1        1 MOL     -0.053012
    137 H58        -6.4790    2.2110    2.5010 hc        1 MOL      0.072762
    138 H59        -5.9370    0.5740    2.1330 hc        1 MOL      0.072762
    139 H60        -8.7660    2.9410    2.2670 ha        1 MOL      0.101747
    140 H61        -7.5070   -1.0380    1.2850 ha        1 MOL      0.101747
    141 H62       -11.0980    2.2230    2.2540 ha        1 MOL      0.151041
    142 H63        -9.8970   -1.7300    1.0370 ha        1 MOL      0.151041
    143 H64       -12.4300    0.4720    1.9170 ho        1 MOL      0.330495
    144 N13        -4.6100    3.8850    0.6070 n         1 MOL     -0.623990
    145 C48        -3.4810    4.7830    0.9440 c3        1 MOL      0.262652
    146 C49        -2.3050    4.7770   -0.0220 c         1 MOL      0.245339
    147 O21        -1.4990    5.6730    0.0970 o         1 MOL     -0.446769
    148 C50        -3.0910    4.5260    2.4480 c3        1 MOL     -0.021315
    149 C51        -4.0510    5.1910    3.4830 c3        1 MOL     -0.179750
    150 C52        -3.5950    4.8870    4.9250 c         1 MOL      0.665640
    151 O22        -3.0780    5.8640    5.4940 o         1 MOL     -0.712988
    152 O23        -3.8490    3.7310    5.4350 o         1 MOL     -0.712988
    153 H65        -5.5610    4.2250    0.5600 hn        1 MOL      0.301614
    154 H66        -3.7910    5.8240    0.9320 h1        1 MOL      0.045383
    155 H67        -2.0670    4.8660    2.6350 hc        1 MOL      0.058309
    156 H68        -3.2420    3.4530    2.5620 hc        1 MOL      0.058309
    157 H69        -5.1100    4.9510    3.3960 hc        1 MOL      0.002821
    158 H70        -3.7760    6.2040    3.1820 hc        1 MOL      0.002821
    159 N14        -2.1860    3.9770   -1.1460 n         1 MOL     -0.254439
    160 C53        -1.0240    4.0370   -2.0040 c3        1 MOL     -0.174645
    161 C54        -1.3450    4.7610   -3.3430 c         1 MOL      0.548874
    162 O24        -0.3950    5.1850   -4.0000 o         1 MOL     -0.562950
    163 C55        -0.4970    2.6470   -2.4060 c3        1 MOL     -0.091399
    164 C56        -0.0080    1.7960   -1.1770 c3        1 MOL      0.273020
    165 C57         1.0630    2.5830   -0.3520 c         1 MOL      0.461700
    166 O25         2.2850    2.2450   -0.5240 o         1 MOL     -0.588017
    167 O26         0.8140    3.2490    0.7040 o         1 MOL     -0.588017
    168 H71        -2.9720    3.3900   -1.3940 hn        1 MOL      0.236975
    169 H72        -0.2290    4.6420   -1.5760 h1        1 MOL      0.189503
    170 H73         0.3510    2.6980   -3.0970 hc        1 MOL      0.026132
    171 H74        -1.2410    2.1410   -3.0090 hc        1 MOL      0.026132
    172 H75         0.4050    0.8640   -1.5700 hc        1 MOL     -0.101824
    173 H76        -0.8530    1.4760   -0.5600 hc        1 MOL     -0.101824
    174 N15        -2.5940    4.8930   -3.6980 n         1 MOL     -0.271449
    175 C58        -3.1370    5.6980   -4.8290 c3        1 MOL     -0.247625
    176 H77        -2.4470    5.6520   -5.6720 h1        1 MOL      0.108495
    177 H78        -4.1050    5.2970   -5.1310 h1        1 MOL      0.108495
    178 H79        -3.2560    6.7350   -4.5140 h1        1 MOL      0.108495
    179 H80        -3.2920    4.5210   -3.0760 hn        1 MOL      0.223491
    180 Ca1         4.5480    2.2720    0.8980 Ca        1 MOL      1.761753
    181 O27         2.5140    2.6940    2.5490 oh        1 MOL     -0.827987
    182 H81         1.7740    2.9130    1.9780 ho        1 MOL      0.399257
    183 H82         2.2560    3.0300    3.4090 ho        1 MOL      0.399257
    184 O28         5.0110    3.5670    3.3440 oh        1 MOL     -0.827987
    185 H83         5.1220    3.1740    4.2130 ho        1 MOL      0.399257
    186 H84         4.6210    4.4180    3.5190 ho        1 MOL      0.399257
    187 O29         6.1560    0.6270    2.4100 oh        1 MOL     -0.827987
    188 H85         6.4320    0.3970    3.2920 ho        1 MOL      0.399257
    189 H86         6.9050    0.4150    1.8530 ho        1 MOL      0.399257
    190 O30         3.4410    4.8560    0.3920 oh        1 MOL     -0.827987
    191 H87         2.7110    4.4790   -0.1080 ho        1 MOL      0.399257
    192 H88         3.7950    5.5250   -0.1770 ho        1 MOL      0.399257
@<TRIPOS>BOND
     1    1    2 1   
     2    1    4 1   
     3    1    5 1   
     4    1    6 1   
     5    2    3 2   
     6    2    7 1   
     7    7    8 1   
     8    7   15 1   
     9    8    9 1   
    10    8   11 1   
    11    8   16 1   
    12    9   10 2   
    13    9   19 1   
    14   11   12 1   
    15   11   17 1   
    16   11   18 1   
    17   12   13 1   
    18   12   14 1   
    19   19   20 1   
    20   19   27 1   
    21   20   21 1   
    22   20   23 1   
    23   20   28 1   
    24   21   22 2   
    25   21   38 1   
    26   23   24 1   
    27   23   25 1   
    28   23   29 1   
    29   24   26 1   
    30   24   30 1   
    31   24   31 1   
    32   25   32 1   
    33   25   33 1   
    34   25   34 1   
    35   26   35 1   
    36   26   36 1   
    37   26   37 1   
    38   38   39 1   
    39   38   46 1   
    40   39   40 1   
    41   39   42 1   
    42   39   47 1   
    43   40   41 2   
    44   40   50 1   
    45   42   43 1   
    46   42   48 1   
    47   42   49 1   
    48   43   44 1   
    49   43   45 1   
    50   50   51 1   
    51   50   54 1   
    52   51   52 1   
    53   51   55 1   
    54   51   56 1   
    55   52   53 2   
    56   52   57 1   
    57   57   58 1   
    58   57   65 1   
    59   58   59 1   
    60   58   61 1   
    61   58   66 1   
    62   59   60 2   
    63   59   69 1   
    64   61   62 1   
    65   61   67 1   
    66   61   68 1   
    67   62   63 1   
    68   62   64 1   
    69   69   70 1   
    70   69   73 1   
    71   70   71 1   
    72   70   74 1   
    73   70   75 1   
    74   71   72 2   
    75   71   76 1   
    76   76   77 1   
    77   76   85 1   
    78   77   78 1   
    79   77   80 1   
    80   77   86 1   
    81   78   79 2   
    82   78   93 1   
    83   80   81 1   
    84   80   87 1   
    85   80   88 1   
    86   81   82 1   
    87   81   89 1   
    88   81   90 1   
    89   82   83 1   
    90   82   84 2   
    91   83   91 1   
    92   83   92 1   
    93   93   94 1   
    94   93  100 1   
    95   94   95 1   
    96   94   97 1   
    97   94  101 1   
    98   95   96 2   
    99   95  109 1   
   100   97   98 1   
   101   97   99 1   
   102   97  102 1   
   103   98  103 1   
   104   98  104 1   
   105   98  105 1   
   106   99  106 1   
   107   99  107 1   
   108   99  108 1   
   109  109  110 1   
   110  109  117 1   
   111  110  111 1   
   112  110  113 1   
   113  110  118 1   
   114  111  112 2   
   115  111  123 1   
   116  113  114 1   
   117  113  119 1   
   118  113  120 1   
   119  114  115 1   
   120  114  116 2   
   121  115  121 1   
   122  115  122 1   
   123  123  124 1   
   124  123  135 1   
   125  124  125 1   
   126  124  127 1   
   127  124  136 1   
   128  125  126 2   
   129  125  144 1   
   130  127  128 1   
   131  127  137 1   
   132  127  138 1   
   133  128  129 ar  
   134  128  130 ar  
   135  129  131 ar  
   136  129  139 1   
   137  130  132 ar  
   138  130  140 1   
   139  131  133 ar  
   140  131  141 1   
   141  132  133 ar  
   142  132  142 1   
   143  133  134 1   
   144  134  143 1   
   145  144  145 1   
   146  144  153 1   
   147  145  146 1   
   148  145  148 1   
   149  145  154 1   
   150  146  147 2   
   151  146  159 1   
   152  148  149 1   
   153  148  155 1   
   154  148  156 1   
   155  149  150 1   
   156  149  157 1   
   157  149  158 1   
   158  150  151 1   
   159  150  152 1   
   160  159  160 1   
   161  159  168 1   
   162  160  161 1   
   163  160  163 1   
   164  160  169 1   
   165  161  162 2   
   166  161  174 1   
   167  163  164 1   
   168  163  170 1   
   169  163  171 1   
   170  164  165 1   
   171  164  172 1   
   172  164  173 1   
   173  165  166 1   
   174  165  167 1   
   175  174  175 1   
   176  174  179 1   
   177  175  176 1   
   178  175  177 1   
   179  175  178 1   
   180  181  182 1   
   181  181  183 1   
   182  184  185 1   
   183  184  186 1   
   184  187  188 1   
   185  187  189 1   
   186  190  191 1   
   187  190  192 1   
@<TRIPOS>SUBSTRUCTURE
     1 MOL         1 TEMP              0 ****  ****    0 ROOT
