@<TRIPOS>MOLECULE
MOL
  186   183     1     0     0
SMALL
resp


@<TRIPOS>ATOM
      1 C1         11.7530    3.4260   -4.3260 c3        1 MOL     -0.266602
      2 C2         11.5760    2.6440   -3.0460 c         1 MOL      0.600580
      3 O1         11.8360    1.4730   -2.9440 o         1 MOL     -0.564832
      4 H1         11.0120    4.2240   -4.3690 hc        1 MOL      0.066094
      5 H2         12.7530    3.8580   -4.3530 hc        1 MOL      0.066094
      6 H3         11.6200    2.7610   -5.1790 hc        1 MOL      0.066094
      7 N1         11.1130    3.3870   -1.9920 n         1 MOL     -0.012478
      8 C3         10.9770    2.9430   -0.6170 c3        1 MOL     -1.026820
      9 C4          9.7600    2.0850   -0.5240 c         1 MOL      0.986163
     10 O2          8.6700    2.4290   -0.9500 o         1 MOL     -0.853369
     11 C5         11.0570    4.0460    0.4210 c3        1 MOL      0.244890
     12 C6         10.3060    5.2710    0.1700 c         1 MOL      0.774395
     13 O3          9.2270    5.3120   -0.5100 o         1 MOL     -0.745667
     14 O4         10.7810    6.2840    0.6610 o         1 MOL     -0.745667
     15 H4         10.7990    4.3100   -2.2470 hn        1 MOL      0.129936
     16 H5         11.8750    2.3350   -0.5260 h1        1 MOL      0.254068
     17 H6         12.1340    4.2500    0.4700 hc        1 MOL      0.024409
     18 H7         10.7950    3.6220    1.3850 hc        1 MOL      0.024409
     19 N2          9.9610    0.8990    0.0820 n         1 MOL     -0.278029
     20 C7          9.1070   -0.3150   -0.0510 c3        1 MOL     -0.435407
     21 C8          7.5870   -0.2430    0.0440 c         1 MOL      0.759093
     22 O5          6.8810   -1.2790   -0.1790 o         1 MOL     -0.577602
     23 C9          9.5480   -1.3880    0.9480 c3        1 MOL     -0.294873
     24 C10         9.1360   -1.1470    2.4710 c3        1 MOL      0.418337
     25 C11         9.7230   -2.2830    3.2760 c3        1 MOL     -0.415808
     26 C12         9.2570   -2.2660    4.7410 c3        1 MOL      0.433415
     27 N3         10.0030   -3.2550    5.6370 n4        1 MOL     -0.552576
     28 H8         10.8130    0.6060    0.5280 hn        1 MOL      0.267378
     29 H9          9.5010   -0.6290   -1.0270 h1        1 MOL      0.195284
     30 H10        10.6020   -1.6070    0.7910 hc        1 MOL      0.141894
     31 H11         8.8900   -2.1880    0.6280 hc        1 MOL      0.141894
     32 H12         8.0670   -1.0950    2.6700 hc        1 MOL     -0.088007
     33 H13         9.6240   -0.2190    2.7940 hc        1 MOL     -0.088007
     34 H14        10.8060   -2.1390    3.2740 hc        1 MOL      0.090361
     35 H15         9.3210   -3.1770    2.7940 hc        1 MOL      0.090361
     36 H16         8.2100   -2.5440    4.8250 hx        1 MOL     -0.001626
     37 H17         9.3350   -1.3260    5.2720 hx        1 MOL     -0.001626
     38 H18        11.0020   -3.2280    5.4840 hn        1 MOL      0.362971
     39 H19         9.8370   -3.0990    6.6130 hn        1 MOL      0.362971
     40 H20         9.6120   -4.1280    5.3140 hn        1 MOL      0.362971
     41 N4          6.9580    0.8340    0.5430 n         1 MOL      0.111877
     42 C13         5.5170    1.0670    0.5810 c3        1 MOL     -0.566557
     43 C14         4.9770    1.4580   -0.8440 c         1 MOL      0.539483
     44 O6          5.5630    2.1990   -1.6450 o         1 MOL     -0.677692
     45 C15         4.9910    2.0740    1.6270 c3        1 MOL      0.178122
     46 C16         5.5950    3.4560    1.6180 c         1 MOL      0.480173
     47 O7          4.9760    4.2070    2.4020 o         1 MOL     -0.647598
     48 O8          6.6490    3.7140    1.0030 o         1 MOL     -0.647598
     49 H21         7.5880    1.5220    0.9270 hn        1 MOL      0.110766
     50 H22         5.1890    0.1130    1.0030 h1        1 MOL      0.064228
     51 H23         5.2780    1.6850    2.6030 hc        1 MOL      0.048717
     52 H24         3.8950    2.0550    1.5810 hc        1 MOL      0.048717
     53 N5          3.8260    0.9090   -1.2100 n         1 MOL     -0.251136
     54 C17         2.9110    0.1240   -0.3940 c3        1 MOL     -0.208171
     55 C18         3.3840   -1.3940   -0.3600 c         1 MOL      0.835428
     56 O9          3.8500   -1.9040   -1.4260 o         1 MOL     -0.586240
     57 H25         3.5240    1.1200   -2.1520 hn        1 MOL      0.273296
     58 H26         1.9030    0.0180   -0.8010 h1        1 MOL      0.096041
     59 H27         2.8700    0.4040    0.6560 h1        1 MOL      0.096041
     60 N6          3.3840   -1.9990    0.7870 n         1 MOL     -0.662518
     61 C19         3.9060   -3.3360    1.1450 c3        1 MOL      0.040466
     62 C20         2.8670   -4.2910    1.6810 c         1 MOL      0.708411
     63 O10         1.9650   -3.9260    2.4280 o         1 MOL     -0.552771
     64 C21         4.9800   -3.1280    2.2780 c3        1 MOL     -0.069419
     65 C22         5.7190   -4.3800    2.7970 c         1 MOL      0.683912
     66 O11         5.8730   -4.4760    4.0040 o         1 MOL     -0.716040
     67 O12         6.0050   -5.2700    1.9300 o         1 MOL     -0.716040
     68 H28         3.1550   -1.4480    1.6090 hn        1 MOL      0.322257
     69 H29         4.5540   -3.7560    0.3830 h1        1 MOL      0.046290
     70 H30         4.4510   -2.6530    3.1110 hc        1 MOL      0.010669
     71 H31         5.8090   -2.5060    1.9400 hc        1 MOL      0.010669
     72 N7          2.8870   -5.5280    1.2240 n         1 MOL     -0.364236
     73 C23         1.6970   -6.3430    1.4940 c3        1 MOL     -0.205033
     74 C24         0.4710   -6.0760    0.6090 c         1 MOL      0.518722
     75 O13        -0.6010   -6.6280    0.7710 o         1 MOL     -0.540462
     76 H32         3.6200   -5.8160    0.5940 hn        1 MOL      0.269877
     77 H33         1.4570   -6.3060    2.5540 h1        1 MOL      0.124644
     78 H34         1.9320   -7.3870    1.3130 h1        1 MOL      0.124644
     79 N8          0.7210   -5.2340   -0.3990 n         1 MOL     -0.287304
     80 C25        -0.2200   -4.7200   -1.3090 c3        1 MOL     -0.000806
     81 C26        -0.6230   -3.2590   -1.0940 c         1 MOL      0.716788
     82 O14         0.0750   -2.5240   -0.4110 o         1 MOL     -0.588056
     83 C27         0.1830   -4.8250   -2.7990 c3        1 MOL      0.283271
     84 C28         1.2780   -3.8000   -3.2260 c3        1 MOL     -0.265113
     85 O15         0.6300   -6.1190   -3.0200 oh        1 MOL     -0.615168
     86 H35         1.6560   -4.8420   -0.4830 hn        1 MOL      0.164303
     87 H36        -1.1770   -5.2320   -1.2200 h1        1 MOL      0.060093
     88 H37        -0.7070   -4.6650   -3.4200 h1        1 MOL      0.034270
     89 H38         1.5420   -6.1640   -2.7340 ho        1 MOL      0.384972
     90 H39         1.4500   -3.9490   -4.2940 hc        1 MOL      0.064675
     91 H40         0.8990   -2.7920   -3.0500 hc        1 MOL      0.064675
     92 H41         2.2020   -3.9020   -2.6690 hc        1 MOL      0.064675
     93 N9         -1.8050   -2.8810   -1.5650 n         1 MOL     -0.664621
     94 C29        -2.3750   -1.5580   -1.1040 c3        1 MOL      0.075499
     95 C30        -3.7580   -1.7840   -0.4930 c         1 MOL      0.623245
     96 O16        -4.0990   -1.1250    0.4650 o         1 MOL     -0.562218
     97 C31        -2.4060   -0.3900   -2.1830 c3        1 MOL      0.111171
     98 C32        -1.3400   -0.4750   -3.3140 c3        1 MOL      0.098805
     99 C33        -2.2770    0.8990   -1.3280 c3        1 MOL     -0.308193
    100 C34        -1.5560    0.6310   -4.3520 c3        1 MOL     -0.226496
    101 H42        -2.3540   -3.5750   -2.0420 hn        1 MOL      0.291454
    102 H43        -1.7410   -1.1860   -0.2990 h1        1 MOL      0.101390
    103 H44        -3.3400   -0.4040   -2.7420 hc        1 MOL     -0.000162
    104 H45        -1.5100   -1.3980   -3.8570 hc        1 MOL     -0.013392
    105 H46        -0.3670   -0.3950   -2.8180 hc        1 MOL     -0.013392
    106 H47        -2.4910    1.7760   -1.9390 hc        1 MOL      0.080620
    107 H48        -3.0010    0.8740   -0.5110 hc        1 MOL      0.080620
    108 H49        -1.3030    0.9310   -0.8380 hc        1 MOL      0.080620
    109 H50        -1.0480    0.4170   -5.2930 hc        1 MOL      0.054747
    110 H51        -2.6220    0.5150   -4.5600 hc        1 MOL      0.054747
    111 H52        -1.3520    1.6220   -3.9420 hc        1 MOL      0.054747
    112 N10        -4.4420   -2.7270   -0.9750 n         1 MOL     -0.524532
    113 C35        -5.6380   -3.1500   -0.3110 c3        1 MOL     -0.054409
    114 C36        -6.8550   -2.7270   -1.2110 c         1 MOL      0.732026
    115 O17        -6.7230   -2.8900   -2.4240 o         1 MOL     -0.583308
    116 C37        -5.6340   -4.6720   -0.0130 c3        1 MOL      0.403431
    117 C38        -4.3180   -5.1680    0.6490 c3        1 MOL     -0.340194
    118 O18        -6.7190   -4.8250    0.8010 oh        1 MOL     -0.642194
    119 H53        -4.1090   -3.2680   -1.7600 hn        1 MOL      0.292923
    120 H54        -5.8320   -2.6790    0.6500 h1        1 MOL      0.067463
    121 H55        -5.8440   -5.1850   -0.9520 h1        1 MOL      0.013248
    122 H56        -6.4770   -4.5210    1.6760 ho        1 MOL      0.390372
    123 H57        -3.4900   -5.1680   -0.0640 hc        1 MOL      0.101148
    124 H58        -4.0800   -4.5830    1.5400 hc        1 MOL      0.101148
    125 H59        -4.5690   -6.1770    0.9930 hc        1 MOL      0.101148
    126 N11        -7.9370   -2.2720   -0.6660 n         1 MOL     -0.662393
    127 C39        -9.1160   -2.0700   -1.3960 c3        1 MOL      0.101560
    128 C40        -9.4910   -0.5720   -1.3330 c         1 MOL      0.730743
    129 O19        -9.6810    0.0080   -2.4040 o         1 MOL     -0.585261
    130 C41       -10.2710   -2.9830   -0.8470 c3        1 MOL      0.267248
    131 C42       -11.4930   -2.9190   -1.7800 c3        1 MOL     -0.269240
    132 O20       -10.7160   -2.7280    0.4710 oh        1 MOL     -0.642138
    133 H60        -8.0220   -2.1750    0.3310 hn        1 MOL      0.355417
    134 H61        -9.0240   -2.2610   -2.4550 h1        1 MOL      0.079806
    135 H62       -10.0010   -4.0450   -0.8870 h1        1 MOL      0.035602
    136 H63       -11.5880   -3.1340    0.5170 ho        1 MOL      0.412340
    137 H64       -11.7570   -1.8680   -1.8760 hc        1 MOL      0.061504
    138 H65       -11.2650   -3.3500   -2.7570 hc        1 MOL      0.061504
    139 H66       -12.2890   -3.4730   -1.2970 hc        1 MOL      0.061504
    140 N12        -9.5900    0.0980   -0.1530 n         1 MOL     -0.580775
    141 C43        -9.8760    1.5160   -0.1360 c3        1 MOL     -0.024495
    142 C44        -9.0230    2.2510    0.8540 c         1 MOL      0.710496
    143 O21        -8.6250    1.7220    1.8390 o         1 MOL     -0.553619
    144 C45       -11.3710    1.7660    0.2390 c3        1 MOL     -0.144227
    145 C46       -12.3260    0.9050   -0.5530 c3        1 MOL     -0.038935
    146 C47       -13.7630    1.1710   -0.1400 c3        1 MOL     -0.120321
    147 C48       -14.2060    0.4660    1.1140 c3        1 MOL      0.086701
    148 N13       -15.6940    0.3730    1.1800 n4        1 MOL     -0.210106
    149 H67        -9.4590   -0.3210    0.7550 hn        1 MOL      0.320997
    150 H68        -9.6670    1.9550   -1.1190 h1        1 MOL      0.119525
    151 H69       -11.5930    2.8140    0.0430 hc        1 MOL      0.082273
    152 H70       -11.5180    1.7970    1.3200 hc        1 MOL      0.082273
    153 H71       -12.1090   -0.1400   -0.3490 hc        1 MOL      0.051170
    154 H72       -12.1930    1.0290   -1.6280 hc        1 MOL      0.051170
    155 H73       -14.4560    0.9000   -0.9400 hc        1 MOL      0.056342
    156 H74       -13.9350    2.2400   -0.0270 hc        1 MOL      0.056342
    157 H75       -13.7820    0.9620    1.9860 hx        1 MOL      0.054477
    158 H76       -13.7580   -0.5280    1.0250 hx        1 MOL      0.054477
    159 H77       -16.2040    1.2450    1.2310 hn        1 MOL      0.231867
    160 H78       -15.9860   -0.0950    0.3330 hn        1 MOL      0.231867
    161 H79       -16.0640   -0.1710    1.9490 hn        1 MOL      0.231867
    162 N14        -8.7930    3.5490    0.5620 n         1 MOL     -0.713815
    163 C49        -8.1630    4.4900    1.5220 c3        1 MOL      0.521004
    164 C50        -6.6390    4.5440    1.4720 c         1 MOL      0.273659
    165 O22        -6.0110    4.4700    2.5330 o         1 MOL     -0.506360
    166 C51        -8.8810    5.8400    1.3510 c3        1 MOL     -0.352602
    167 C52        -8.3790    6.9020    2.3480 c3        1 MOL     -0.030952
    168 C53        -9.0910    8.2570    2.2060 c         1 MOL      0.671893
    169 O23        -8.8440    8.8640    1.1310 o         1 MOL     -0.648165
    170 O24        -9.7240    8.7220    3.1880 o         1 MOL     -0.648165
    171 H80        -9.0840    3.8470   -0.3540 hn        1 MOL      0.306638
    172 H81        -8.3520    4.2370    2.5650 h1        1 MOL      0.014173
    173 H82        -9.9470    5.6720    1.5350 hc        1 MOL      0.071352
    174 H83        -8.6340    6.1000    0.3230 hc        1 MOL      0.071352
    175 H84        -7.3370    7.1420    2.1160 hc        1 MOL      0.015921
    176 H85        -8.4250    6.3670    3.2970 hc        1 MOL      0.015921
    177 N15        -5.9340    4.6780    0.2920 n         1 MOL     -0.228850
    178 C54        -6.3450    4.6190   -1.0780 c3        1 MOL     -0.107346
    179 H86        -6.6000    5.6210   -1.4240 h1        1 MOL      0.060363
    180 H87        -5.5320    4.2200   -1.6860 h1        1 MOL      0.060363
    181 H88        -7.2170    3.9710   -1.1690 h1        1 MOL      0.060363
    182 H89        -4.9360    4.7630    0.4460 hn        1 MOL      0.255709
    183 Ca1         6.9280    4.3590   -1.5360 Ca        1 MOL      1.745637
    184 O25         8.0300    2.7990   -3.6250 oh        1 MOL     -0.805285
    185 H90         8.2970    1.8990   -3.4810 ho        1 MOL      0.416942
    186 H91         8.0020    2.8960   -4.5760 ho        1 MOL      0.416942
@<TRIPOS>BOND
     1    1    2 1   
     2    1    4 1   
     3    1    5 1   
     4    1    6 1   
     5    2    3 2   
     6    2    7 1   
     7    7    8 1   
     8    7   15 1   
     9    8    9 1   
    10    8   11 1   
    11    8   16 1   
    12    9   10 2   
    13    9   19 1   
    14   11   12 1   
    15   11   17 1   
    16   11   18 1   
    17   12   13 1   
    18   12   14 1   
    19   19   20 1   
    20   19   28 1   
    21   20   21 1   
    22   20   23 1   
    23   20   29 1   
    24   21   22 2   
    25   21   41 1   
    26   23   24 1   
    27   23   30 1   
    28   23   31 1   
    29   24   25 1   
    30   24   32 1   
    31   24   33 1   
    32   25   26 1   
    33   25   34 1   
    34   25   35 1   
    35   26   27 1   
    36   26   36 1   
    37   26   37 1   
    38   27   38 1   
    39   27   39 1   
    40   27   40 1   
    41   41   42 1   
    42   41   49 1   
    43   42   43 1   
    44   42   45 1   
    45   42   50 1   
    46   43   44 2   
    47   43   53 1   
    48   45   46 1   
    49   45   51 1   
    50   45   52 1   
    51   46   47 1   
    52   46   48 1   
    53   53   54 1   
    54   53   57 1   
    55   54   55 1   
    56   54   58 1   
    57   54   59 1   
    58   55   56 2   
    59   55   60 1   
    60   60   61 1   
    61   60   68 1   
    62   61   62 1   
    63   61   64 1   
    64   61   69 1   
    65   62   63 2   
    66   62   72 1   
    67   64   65 1   
    68   64   70 1   
    69   64   71 1   
    70   65   66 1   
    71   65   67 1   
    72   72   73 1   
    73   72   76 1   
    74   73   74 1   
    75   73   77 1   
    76   73   78 1   
    77   74   75 2   
    78   74   79 1   
    79   79   80 1   
    80   79   86 1   
    81   80   81 1   
    82   80   83 1   
    83   80   87 1   
    84   81   82 2   
    85   81   93 1   
    86   83   84 1   
    87   83   85 1   
    88   83   88 1   
    89   84   90 1   
    90   84   91 1   
    91   84   92 1   
    92   85   89 1   
    93   93   94 1   
    94   93  101 1   
    95   94   95 1   
    96   94   97 1   
    97   94  102 1   
    98   95   96 2   
    99   95  112 1   
   100   97   98 1   
   101   97   99 1   
   102   97  103 1   
   103   98  100 1   
   104   98  104 1   
   105   98  105 1   
   106   99  106 1   
   107   99  107 1   
   108   99  108 1   
   109  100  109 1   
   110  100  110 1   
   111  100  111 1   
   112  112  113 1   
   113  112  119 1   
   114  113  114 1   
   115  113  116 1   
   116  113  120 1   
   117  114  115 2   
   118  114  126 1   
   119  116  117 1   
   120  116  118 1   
   121  116  121 1   
   122  117  123 1   
   123  117  124 1   
   124  117  125 1   
   125  118  122 1   
   126  126  127 1   
   127  126  133 1   
   128  127  128 1   
   129  127  130 1   
   130  127  134 1   
   131  128  129 2   
   132  128  140 1   
   133  130  131 1   
   134  130  132 1   
   135  130  135 1   
   136  131  137 1   
   137  131  138 1   
   138  131  139 1   
   139  132  136 1   
   140  140  141 1   
   141  140  149 1   
   142  141  142 1   
   143  141  144 1   
   144  141  150 1   
   145  142  143 2   
   146  142  162 1   
   147  144  145 1   
   148  144  151 1   
   149  144  152 1   
   150  145  146 1   
   151  145  153 1   
   152  145  154 1   
   153  146  147 1   
   154  146  155 1   
   155  146  156 1   
   156  147  148 1   
   157  147  157 1   
   158  147  158 1   
   159  148  159 1   
   160  148  160 1   
   161  148  161 1   
   162  162  163 1   
   163  162  171 1   
   164  163  164 1   
   165  163  166 1   
   166  163  172 1   
   167  164  165 2   
   168  164  177 1   
   169  166  167 1   
   170  166  173 1   
   171  166  174 1   
   172  167  168 1   
   173  167  175 1   
   174  167  176 1   
   175  168  169 1   
   176  168  170 1   
   177  177  178 1   
   178  177  182 1   
   179  178  179 1   
   180  178  180 1   
   181  178  181 1   
   182  184  185 1   
   183  184  186 1   
@<TRIPOS>SUBSTRUCTURE
     1 MOL         1 TEMP              0 ****  ****    0 ROOT
