@<TRIPOS>MOLECULE
MOL
  186   183     1     0     0
SMALL
resp


@<TRIPOS>ATOM
      1 C1        -12.7400    4.7570    3.7710 c3        1 MOL     -0.495132
      2 C2        -12.6730    3.7900    2.5370 c         1 MOL      0.789098
      3 O1        -13.6230    3.0180    2.3800 o         1 MOL     -0.603773
      4 H1        -11.8070    4.6960    4.3300 hc        1 MOL      0.128231
      5 H2        -12.8890    5.7800    3.4240 hc        1 MOL      0.128231
      6 H3        -13.5700    4.4680    4.4150 hc        1 MOL      0.128231
      7 N1        -11.5540    3.7060    1.8450 n         1 MOL     -0.395078
      8 C3        -11.4360    2.9110    0.6200 c3        1 MOL     -0.311149
      9 C4        -10.2030    2.0140    0.3840 c         1 MOL      0.581491
     10 O2         -9.0490    2.4360    0.6790 o         1 MOL     -0.559709
     11 C5        -11.6020    3.9230   -0.5760 c3        1 MOL     -0.230558
     12 C6        -10.7940    5.2120   -0.4100 c         1 MOL      0.918374
     13 O3         -9.5530    5.1910   -0.7050 o         1 MOL     -0.796648
     14 O4        -11.2880    6.1610    0.1940 o         1 MOL     -0.796648
     15 H4        -10.7520    4.3030    2.0200 hn        1 MOL      0.259377
     16 H5        -12.2760    2.2260    0.5980 h1        1 MOL      0.163044
     17 H6        -12.6560    4.1920   -0.5420 hc        1 MOL      0.092784
     18 H7        -11.3870    3.4590   -1.5430 hc        1 MOL      0.092784
     19 N2        -10.4480    0.7710   -0.0470 n         1 MOL     -0.325975
     20 C7         -9.6110   -0.4120    0.1520 c3        1 MOL     -0.075622
     21 C8         -8.1190   -0.3610   -0.1220 c         1 MOL      0.473141
     22 O5         -7.2790   -1.1510    0.3930 o         1 MOL     -0.511385
     23 C9        -10.3910   -1.4330   -0.6310 c3        1 MOL     -0.568935
     24 C10        -9.8910   -2.8770   -0.6000 c3        1 MOL      0.344165
     25 C11       -10.7540   -3.8550   -1.3310 c3        1 MOL     -0.038937
     26 C12       -10.3280   -5.3410   -1.4560 c3        1 MOL      0.003209
     27 N3         -9.1930   -5.5750   -2.3680 n4        1 MOL     -0.267705
     28 H8        -11.4370    0.6380   -0.1980 hn        1 MOL      0.262833
     29 H9         -9.5650   -0.7230    1.1980 h1        1 MOL      0.149146
     30 H10       -10.4120   -1.0370   -1.6440 hc        1 MOL      0.165321
     31 H11       -11.3330   -1.3930   -0.0900 hc        1 MOL      0.165321
     32 H12        -9.7970   -3.1420    0.4540 hc        1 MOL     -0.020663
     33 H13        -8.9280   -2.8790   -1.1140 hc        1 MOL     -0.020663
     34 H14       -11.0140   -3.5130   -2.3320 hc        1 MOL      0.018068
     35 H15       -11.6260   -3.9780   -0.6940 hc        1 MOL      0.018068
     36 H16       -11.2340   -5.8410   -1.7750 hx        1 MOL      0.063597
     37 H17       -10.0550   -5.7450   -0.4800 hx        1 MOL      0.063597
     38 H18        -9.2720   -5.1620   -3.2930 hn        1 MOL      0.296105
     39 H19        -8.3040   -5.3360   -1.9590 hn        1 MOL      0.296105
     40 H20        -9.1660   -6.5690   -2.5200 hn        1 MOL      0.296105
     41 N4         -7.5320    0.6940   -0.8440 n         1 MOL     -0.029973
     42 C13        -6.0760    0.9330   -1.1860 c3        1 MOL     -0.643771
     43 C14        -5.3340    1.5660   -0.0120 c         1 MOL      0.694355
     44 O6         -5.9140    2.2800    0.7910 o         1 MOL     -0.697396
     45 C15        -5.8870    1.6460   -2.4990 c3        1 MOL     -0.146095
     46 C16        -6.5930    2.9900   -2.5590 c         1 MOL      0.528855
     47 O7         -6.4910    3.6200   -3.6600 o         1 MOL     -0.626059
     48 O8         -7.3620    3.3910   -1.6870 o         1 MOL     -0.626059
     49 H21        -8.1530    1.4480   -1.0940 hn        1 MOL      0.229248
     50 H22        -5.6550   -0.0540   -1.3390 h1        1 MOL      0.307261
     51 H23        -6.2250    1.0260   -3.3260 hc        1 MOL      0.106261
     52 H24        -4.8080    1.7820   -2.4800 hc        1 MOL      0.106261
     53 N5         -4.0190    1.3940    0.1370 n         1 MOL     -0.268883
     54 C17        -3.0600    0.4640   -0.5360 c3        1 MOL     -0.241528
     55 C18        -3.4570   -1.0100   -0.3430 c         1 MOL      0.707494
     56 O9         -3.5600   -1.4670    0.8070 o         1 MOL     -0.503232
     57 H25        -3.6730    2.0040    0.8700 hn        1 MOL      0.225978
     58 H26        -2.1020    0.6330   -0.0400 h1        1 MOL      0.128688
     59 H27        -2.9980    0.7090   -1.5870 h1        1 MOL      0.128688
     60 N6         -3.8920   -1.7360   -1.4070 n         1 MOL     -0.631025
     61 C19        -4.4430   -3.0590   -1.3360 c3        1 MOL     -0.032881
     62 C20        -3.4560   -4.1640   -1.4640 c         1 MOL      0.677439
     63 O10        -2.6440   -4.1600   -2.3720 o         1 MOL     -0.553497
     64 C21        -5.5950   -3.2040   -2.2890 c3        1 MOL     -0.168159
     65 C22        -6.2560   -4.5290   -2.1260 c         1 MOL      0.691203
     66 O11        -6.8590   -4.7520   -1.0710 o         1 MOL     -0.725222
     67 O12        -6.2060   -5.3680   -3.0260 o         1 MOL     -0.725222
     68 H28        -3.6170   -1.4500   -2.3350 hn        1 MOL      0.337755
     69 H29        -4.9560   -3.2320   -0.3870 h1        1 MOL      0.046331
     70 H30        -5.1800   -3.1730   -3.2930 hc        1 MOL      0.063771
     71 H31        -6.3140   -2.4030   -2.1660 hc        1 MOL      0.063771
     72 N7         -3.4530   -5.1200   -0.5590 n         1 MOL     -0.222543
     73 C23        -2.4650   -6.2800   -0.4770 c3        1 MOL     -0.317598
     74 C24        -1.0110   -5.8600   -0.1330 c         1 MOL      0.586257
     75 O13        -0.0990   -6.7120   -0.2270 o         1 MOL     -0.533184
     76 H32        -4.1710   -5.0590    0.1520 hn        1 MOL      0.245424
     77 H33        -2.3590   -6.7890   -1.4320 h1        1 MOL      0.156636
     78 H34        -2.7670   -6.9950    0.2890 h1        1 MOL      0.156636
     79 N8         -0.7920   -4.6020    0.4250 n         1 MOL     -0.360052
     80 C25         0.5120   -4.0980    1.0000 c3        1 MOL     -0.066360
     81 C26         1.0040   -2.7490    0.4070 c         1 MOL      0.740155
     82 O14         0.2790   -2.0400   -0.2270 o         1 MOL     -0.561048
     83 C27         0.3770   -4.0140    2.4850 c3        1 MOL      0.262287
     84 C28        -0.9610   -3.2670    2.9480 c3        1 MOL     -0.507764
     85 O15         0.4350   -5.2260    3.1480 oh        1 MOL     -0.616564
     86 H35        -1.6080   -4.0310    0.6080 hn        1 MOL      0.150035
     87 H36         1.3330   -4.7730    0.7540 h1        1 MOL      0.074616
     88 H37         1.3040   -3.5460    2.8220 h1        1 MOL      0.105958
     89 H38        -0.3580   -5.7020    2.9100 ho        1 MOL      0.401556
     90 H39        -0.8860   -3.2260    4.0420 hc        1 MOL      0.139703
     91 H40        -1.2100   -2.3220    2.4690 hc        1 MOL      0.139703
     92 H41        -1.7910   -3.9310    2.7040 hc        1 MOL      0.139703
     93 N9          2.2210   -2.3330    0.8010 n         1 MOL     -0.689490
     94 C29         2.9080   -1.0430    0.5390 c3        1 MOL      0.059855
     95 C30         4.2990   -1.1680   -0.0230 c         1 MOL      0.595848
     96 O16         4.8160   -0.3080   -0.7120 o         1 MOL     -0.509023
     97 C31         3.0580   -0.1880    1.8600 c3        1 MOL     -0.026369
     98 C32         1.9060   -0.4200    2.9410 c3        1 MOL      0.115980
     99 C33         3.0280    1.3310    1.3790 c3        1 MOL     -0.201307
    100 C34         2.1540    0.2000    4.2830 c3        1 MOL     -0.389337
    101 H42         2.6590   -2.9410    1.4790 hn        1 MOL      0.290290
    102 H43         2.2840   -0.4860   -0.1570 h1        1 MOL      0.107207
    103 H44         4.0180   -0.4070    2.3360 hc        1 MOL      0.048464
    104 H45         1.8070   -1.5030    3.0840 hc        1 MOL      0.022727
    105 H46         0.8790   -0.2200    2.6200 hc        1 MOL      0.022727
    106 H47         3.7640    1.4510    0.5830 hc        1 MOL      0.060961
    107 H48         2.0430    1.6140    1.0030 hc        1 MOL      0.060961
    108 H49         3.2560    1.9160    2.2670 hc        1 MOL      0.060961
    109 H50         1.8840    1.2500    4.1770 hc        1 MOL      0.096466
    110 H51         1.5780   -0.2980    5.0630 hc        1 MOL      0.096466
    111 H52         3.1960    0.0160    4.5420 hc        1 MOL      0.096466
    112 N10         4.9450   -2.3020    0.2750 n         1 MOL     -0.377138
    113 C35         6.3170   -2.6380   -0.0750 c3        1 MOL     -0.171225
    114 C36         7.3240   -2.6270    1.1690 c         1 MOL      0.608525
    115 O17         6.8830   -2.7410    2.3010 o         1 MOL     -0.520786
    116 C37         6.4020   -4.0620   -0.6040 c3        1 MOL      0.434817
    117 C38         5.6830   -4.2640   -1.8730 c3        1 MOL     -0.310798
    118 O18         7.7180   -4.5370   -0.9090 oh        1 MOL     -0.691663
    119 H53         4.5760   -2.8130    1.0580 hn        1 MOL      0.238100
    120 H54         6.5650   -2.0050   -0.9330 h1        1 MOL      0.139725
    121 H55         5.9160   -4.7030    0.1350 h1        1 MOL     -0.023268
    122 H56         7.6010   -5.3960   -1.3180 ho        1 MOL      0.416477
    123 H57         4.6570   -3.9220   -1.7290 hc        1 MOL      0.077906
    124 H58         6.1970   -3.6840   -2.6380 hc        1 MOL      0.077906
    125 H59         5.7110   -5.3210   -2.1430 hc        1 MOL      0.077906
    126 N11         8.5630   -2.3290    0.8210 n         1 MOL     -0.603347
    127 C39         9.6940   -2.1520    1.7560 c3        1 MOL      0.231616
    128 C40        10.0430   -0.6560    1.8410 c         1 MOL      0.653116
    129 O19        10.3520   -0.1430    2.9000 o         1 MOL     -0.579181
    130 C41        10.9410   -2.9720    1.4170 c3        1 MOL      0.248718
    131 C42        12.1420   -2.6600    2.3600 c3        1 MOL     -0.360367
    132 O20        11.3880   -2.7300    0.1350 oh        1 MOL     -0.567525
    133 H60         8.6820   -2.1130   -0.1550 hn        1 MOL      0.346710
    134 H61         9.3430   -2.3690    2.7690 h1        1 MOL      0.031858
    135 H62        10.6030   -3.9930    1.6090 h1        1 MOL      0.029841
    136 H63        12.2170   -3.1980    0.1500 ho        1 MOL      0.357713
    137 H64        12.5890   -1.7310    2.0210 hc        1 MOL      0.091580
    138 H65        11.8610   -2.5990    3.4070 hc        1 MOL      0.091580
    139 H66        12.8760   -3.4320    2.1710 hc        1 MOL      0.091580
    140 N12        10.0180   -0.0010    0.6880 n         1 MOL     -0.537007
    141 C43        10.5140    1.4080    0.4690 c3        1 MOL      0.000628
    142 C44         9.6740    2.1540   -0.5750 c         1 MOL      0.611636
    143 O21         9.1720    1.6260   -1.5670 o         1 MOL     -0.524036
    144 C45        12.0540    1.3460    0.0860 c3        1 MOL     -0.199286
    145 C46        12.3260    0.9650   -1.3750 c3        1 MOL     -0.083174
    146 C47        13.8480    0.7510   -1.7470 c3        1 MOL     -0.007796
    147 C48        14.4910   -0.4310   -0.9520 c3        1 MOL      0.020727
    148 N13        15.9300   -0.4190   -1.1730 n4        1 MOL     -0.215542
    149 H67         9.8790   -0.5840   -0.1190 hn        1 MOL      0.257375
    150 H68        10.4170    1.9860    1.3890 h1        1 MOL      0.120601
    151 H69        12.5360    0.6070    0.7370 hc        1 MOL      0.081337
    152 H70        12.4900    2.3070    0.3470 hc        1 MOL      0.081337
    153 H71        11.9670    1.7110   -2.0790 hc        1 MOL      0.087309
    154 H72        11.9100   -0.0070   -1.6450 hc        1 MOL      0.087309
    155 H73        14.2940    1.7010   -1.4520 hc        1 MOL      0.034954
    156 H74        13.8510    0.5530   -2.8110 hc        1 MOL      0.034954
    157 H75        14.0660   -1.2800   -1.4760 hx        1 MOL      0.070331
    158 H76        14.2000   -0.4200    0.1030 hx        1 MOL      0.070331
    159 H77        16.2010   -0.1520   -2.1150 hn        1 MOL      0.233569
    160 H78        16.3060    0.2560   -0.5300 hn        1 MOL      0.233569
    161 H79        16.3890   -1.2760   -0.8950 hn        1 MOL      0.233569
    162 N14         9.6130    3.4780   -0.4000 n         1 MOL     -0.525255
    163 C49         8.7290    4.3990   -1.1760 c3        1 MOL      0.224148
    164 C50         7.2110    4.1610   -1.0370 c         1 MOL      0.370176
    165 O22         6.5080    3.8880   -2.0290 o         1 MOL     -0.513357
    166 C51         9.1830    5.8580   -0.9250 c3        1 MOL      0.021631
    167 C52         8.3330    6.8960   -1.6810 c3        1 MOL     -0.158268
    168 C53         9.1320    8.2210   -1.7170 c         1 MOL      0.697654
    169 O23         9.1810    8.9160   -0.6770 o         1 MOL     -0.654692
    170 O24         9.6810    8.4890   -2.7780 o         1 MOL     -0.654692
    171 H80        10.1980    3.9050    0.3030 hn        1 MOL      0.265054
    172 H81         8.9730    4.2480   -2.2300 h1        1 MOL      0.050435
    173 H82        10.2380    5.8690   -1.2340 hc        1 MOL     -0.003270
    174 H83         9.1620    6.0940    0.1410 hc        1 MOL     -0.003270
    175 H84         7.3980    7.0130   -1.1350 hc        1 MOL      0.031447
    176 H85         8.1290    6.5580   -2.6980 hc        1 MOL      0.031447
    177 N15         6.5780    4.3330    0.1460 n         1 MOL     -0.292024
    178 C54         7.0590    4.8660    1.4160 c3        1 MOL     -0.201117
    179 H86         6.4880    4.4270    2.2340 h1        1 MOL      0.091291
    180 H87         8.1150    4.6200    1.5370 h1        1 MOL      0.091291
    181 H88         6.9350    5.9490    1.4270 h1        1 MOL      0.091291
    182 H89         5.5860    4.1250    0.1910 hn        1 MOL      0.274900
    183 Ca1        -7.2470    4.3490    0.7260 Ca        1 MOL      1.701939
    184 O25        -7.7830    2.9930    3.1820 oh        1 MOL     -0.875835
    185 H90        -8.1580    3.3080    4.0000 ho        1 MOL      0.435201
    186 H91        -7.4870    2.1060    3.3780 ho        1 MOL      0.435201
@<TRIPOS>BOND
     1    1    2 1   
     2    1    4 1   
     3    1    5 1   
     4    1    6 1   
     5    2    3 2   
     6    2    7 1   
     7    7    8 1   
     8    7   15 1   
     9    8    9 1   
    10    8   11 1   
    11    8   16 1   
    12    9   10 2   
    13    9   19 1   
    14   11   12 1   
    15   11   17 1   
    16   11   18 1   
    17   12   13 1   
    18   12   14 1   
    19   19   20 1   
    20   19   28 1   
    21   20   21 1   
    22   20   23 1   
    23   20   29 1   
    24   21   22 2   
    25   21   41 1   
    26   23   24 1   
    27   23   30 1   
    28   23   31 1   
    29   24   25 1   
    30   24   32 1   
    31   24   33 1   
    32   25   26 1   
    33   25   34 1   
    34   25   35 1   
    35   26   27 1   
    36   26   36 1   
    37   26   37 1   
    38   27   38 1   
    39   27   39 1   
    40   27   40 1   
    41   41   42 1   
    42   41   49 1   
    43   42   43 1   
    44   42   45 1   
    45   42   50 1   
    46   43   44 2   
    47   43   53 1   
    48   45   46 1   
    49   45   51 1   
    50   45   52 1   
    51   46   47 1   
    52   46   48 1   
    53   53   54 1   
    54   53   57 1   
    55   54   55 1   
    56   54   58 1   
    57   54   59 1   
    58   55   56 2   
    59   55   60 1   
    60   60   61 1   
    61   60   68 1   
    62   61   62 1   
    63   61   64 1   
    64   61   69 1   
    65   62   63 2   
    66   62   72 1   
    67   64   65 1   
    68   64   70 1   
    69   64   71 1   
    70   65   66 1   
    71   65   67 1   
    72   72   73 1   
    73   72   76 1   
    74   73   74 1   
    75   73   77 1   
    76   73   78 1   
    77   74   75 2   
    78   74   79 1   
    79   79   80 1   
    80   79   86 1   
    81   80   81 1   
    82   80   83 1   
    83   80   87 1   
    84   81   82 2   
    85   81   93 1   
    86   83   84 1   
    87   83   85 1   
    88   83   88 1   
    89   84   90 1   
    90   84   91 1   
    91   84   92 1   
    92   85   89 1   
    93   93   94 1   
    94   93  101 1   
    95   94   95 1   
    96   94   97 1   
    97   94  102 1   
    98   95   96 2   
    99   95  112 1   
   100   97   98 1   
   101   97   99 1   
   102   97  103 1   
   103   98  100 1   
   104   98  104 1   
   105   98  105 1   
   106   99  106 1   
   107   99  107 1   
   108   99  108 1   
   109  100  109 1   
   110  100  110 1   
   111  100  111 1   
   112  112  113 1   
   113  112  119 1   
   114  113  114 1   
   115  113  116 1   
   116  113  120 1   
   117  114  115 2   
   118  114  126 1   
   119  116  117 1   
   120  116  118 1   
   121  116  121 1   
   122  117  123 1   
   123  117  124 1   
   124  117  125 1   
   125  118  122 1   
   126  126  127 1   
   127  126  133 1   
   128  127  128 1   
   129  127  130 1   
   130  127  134 1   
   131  128  129 2   
   132  128  140 1   
   133  130  131 1   
   134  130  132 1   
   135  130  135 1   
   136  131  137 1   
   137  131  138 1   
   138  131  139 1   
   139  132  136 1   
   140  140  141 1   
   141  140  149 1   
   142  141  142 1   
   143  141  144 1   
   144  141  150 1   
   145  142  143 2   
   146  142  162 1   
   147  144  145 1   
   148  144  151 1   
   149  144  152 1   
   150  145  146 1   
   151  145  153 1   
   152  145  154 1   
   153  146  147 1   
   154  146  155 1   
   155  146  156 1   
   156  147  148 1   
   157  147  157 1   
   158  147  158 1   
   159  148  159 1   
   160  148  160 1   
   161  148  161 1   
   162  162  163 1   
   163  162  171 1   
   164  163  164 1   
   165  163  166 1   
   166  163  172 1   
   167  164  165 2   
   168  164  177 1   
   169  166  167 1   
   170  166  173 1   
   171  166  174 1   
   172  167  168 1   
   173  167  175 1   
   174  167  176 1   
   175  168  169 1   
   176  168  170 1   
   177  177  178 1   
   178  177  182 1   
   179  178  179 1   
   180  178  180 1   
   181  178  181 1   
   182  184  185 1   
   183  184  186 1   
@<TRIPOS>SUBSTRUCTURE
     1 MOL         1 TEMP              0 ****  ****    0 ROOT
