@<TRIPOS>MOLECULE
MOL
  185   180     1     0     0
SMALL
resp


@<TRIPOS>ATOM
      1 C1         -5.8560    2.5200   -1.2020 c3        1 MOL     -0.283340
      2 C2         -6.9180    2.2370   -0.1350 c         1 MOL      0.809645
      3 O1         -6.5990    1.6560    0.8810 o         1 MOL     -0.552585
      4 H1         -5.0460    3.1030   -0.7620 hc        1 MOL      0.048482
      5 H2         -5.4590    1.5780   -1.5810 hc        1 MOL      0.048482
      6 H3         -6.3030    3.0820   -2.0210 hc        1 MOL      0.048482
      7 N1         -8.1430    2.6500   -0.3940 n         1 MOL     -0.600528
      8 C3         -9.2800    2.3280    0.4490 c3        1 MOL      0.059988
      9 C4         -9.4590    0.9030    0.8000 c         1 MOL      0.487780
     10 O2        -10.0820    0.5470    1.8460 o         1 MOL     -0.560356
     11 C5         -9.3490    3.2370    1.6420 c3        1 MOL     -0.336889
     12 C6         -9.2730    4.7580    1.2170 c         1 MOL      0.687831
     13 O3         -9.7780    5.2320    0.1580 o         1 MOL     -0.638263
     14 O4         -8.7340    5.5720    2.0400 o         1 MOL     -0.638263
     15 H4         -8.2470    3.1550   -1.2650 hn        1 MOL      0.317519
     16 H5        -10.1650    2.4860   -0.1810 h1        1 MOL      0.057465
     17 H6         -8.5210    2.9890    2.3100 hc        1 MOL      0.129396
     18 H7        -10.2750    3.1030    2.1930 hc        1 MOL      0.129396
     19 N2         -8.9640   -0.0150   -0.0090 n         1 MOL     -0.210243
     20 C7         -9.0670   -1.4900    0.0850 c3        1 MOL     -0.019008
     21 C8         -7.7390   -2.2490    0.2450 c         1 MOL      0.712892
     22 O5         -7.7890   -3.3960    0.8160 o         1 MOL     -0.600397
     23 C9         -9.7830   -2.0380   -1.1720 c3        1 MOL     -0.230445
     24 C10       -11.2520   -1.8770   -1.0030 c3        1 MOL      0.125489
     25 C11       -12.0240   -2.4940   -2.1900 c3        1 MOL      0.048509
     26 C12       -13.4760   -2.2100   -1.8310 c3        1 MOL      0.103924
     27 N3        -14.2490   -3.2260   -2.5550 n4        1 MOL     -0.195877
     28 H8         -8.4180    0.4500   -0.7210 hn        1 MOL      0.133185
     29 H9         -9.6060   -1.8140    0.9730 h1        1 MOL      0.099755
     30 H10        -9.5560   -3.0990   -1.3060 hc        1 MOL      0.057825
     31 H11        -9.4280   -1.4600   -2.0270 hc        1 MOL      0.057825
     32 H12       -11.4650   -0.8060   -0.9670 hc        1 MOL      0.002483
     33 H13       -11.5870   -2.4680   -0.1480 hc        1 MOL      0.002483
     34 H14       -11.7550   -3.5320   -2.3780 hc        1 MOL     -0.006312
     35 H15       -11.7910   -1.8360   -3.0370 hc        1 MOL     -0.006312
     36 H16       -13.7700   -1.1880   -2.0750 hx        1 MOL      0.047363
     37 H17       -13.6030   -2.2700   -0.7520 hx        1 MOL      0.047363
     38 H18       -13.7620   -4.0990   -2.6380 hn        1 MOL      0.219583
     39 H19       -15.1480   -3.3360   -2.1150 hn        1 MOL      0.219583
     40 H20       -14.4310   -2.9270   -3.5060 hn        1 MOL      0.219583
     41 N4         -6.5780   -1.7040   -0.1170 n         1 MOL     -0.665117
     42 C13        -5.2240   -2.1630    0.1840 c3        1 MOL      0.121612
     43 C14        -4.9480   -1.9230    1.6920 c         1 MOL      0.664818
     44 O6         -5.0220   -0.8150    2.1070 o         1 MOL     -0.503713
     45 C15        -4.1740   -1.5810   -0.7200 c3        1 MOL     -0.075960
     46 C16        -2.7750   -2.1330   -0.5100 c         1 MOL      0.451599
     47 O7         -1.8410   -1.6700   -1.2370 o         1 MOL     -0.657530
     48 O8         -2.5020   -2.9640    0.3890 o         1 MOL     -0.657530
     49 H21        -6.6540   -0.8230   -0.6040 hn        1 MOL      0.318291
     50 H22        -5.2260   -3.2500    0.1060 h1        1 MOL      0.008141
     51 H23        -4.2960   -0.5250   -0.5000 hc        1 MOL      0.039613
     52 H24        -4.4520   -1.7440   -1.7750 hc        1 MOL      0.039613
     53 N5         -4.5040   -2.9310    2.4050 n         1 MOL     -0.508454
     54 C17        -4.2220   -2.8470    3.8670 c3        1 MOL      0.009541
     55 C18        -2.8870   -2.0060    4.0460 c         1 MOL      0.387769
     56 O9         -2.7250   -1.5070    5.1140 o         1 MOL     -0.529146
     57 H25        -4.2780   -3.7860    1.9330 hn        1 MOL      0.296257
     58 H26        -4.0650   -3.8500    4.2690 h1        1 MOL      0.081750
     59 H27        -4.9790   -2.4230    4.5220 h1        1 MOL      0.081750
     60 N6         -1.9880   -1.9200    3.0660 n         1 MOL     -0.147340
     61 C19        -0.6750   -1.3480    3.0160 c3        1 MOL      0.104857
     62 C20        -0.4630   -0.6130    1.6250 c         1 MOL      0.479842
     63 O10         0.3490   -1.0250    0.7870 o         1 MOL     -0.420270
     64 C21         0.3890   -2.3550    3.4170 c3        1 MOL     -0.334051
     65 C22         0.1270   -3.6480    2.7960 c         1 MOL      0.752516
     66 N7         -0.2220   -4.6610    3.5760 n         1 MOL     -0.952764
     67 O11         0.0260   -3.7350    1.5970 o         1 MOL     -0.634884
     68 H28        -2.2620   -2.4610    2.2590 hn        1 MOL      0.210909
     69 H29        -0.6170   -0.5400    3.7380 h1        1 MOL      0.048297
     70 H30         0.4440   -2.4460    4.5030 hc        1 MOL      0.116238
     71 H31         1.3300   -2.0540    2.9660 hc        1 MOL      0.116238
     72 H32        -0.5020   -4.6660    4.5360 hn        1 MOL      0.421466
     73 H33        -0.1790   -5.4780    2.9850 hn        1 MOL      0.421466
     74 N8         -1.4010    0.3520    1.3150 n         1 MOL     -0.524409
     75 C23        -1.3660    1.2170    0.0930 c3        1 MOL      0.071158
     76 C24        -0.1810    2.2140    0.1680 c         1 MOL      0.612747
     77 O12         0.4920    2.3390    1.2170 o         1 MOL     -0.525658
     78 H34        -2.1410    0.5500    1.9650 hn        1 MOL      0.314744
     79 H35        -2.2840    1.7960    0.0770 h1        1 MOL      0.050792
     80 H36        -1.2740    0.6190   -0.8080 h1        1 MOL      0.050792
     81 N9          0.1320    2.6740   -1.0320 n         1 MOL     -0.661090
     82 C25         1.3650    3.4090   -1.2350 c3        1 MOL      0.448444
     83 C26         2.6210    2.4660   -1.4930 c         1 MOL      0.428359
     84 O13         2.5000    1.3560   -2.0330 o         1 MOL     -0.517116
     85 C27         1.2490    4.5360   -2.2510 c3        1 MOL     -0.082478
     86 C28         0.1690    5.6250   -1.9710 ca        1 MOL      0.190070
     87 C29         0.1980    6.4040   -0.8160 ca        1 MOL     -0.333531
     88 C30        -0.9730    5.7790   -2.8070 ca        1 MOL     -0.333531
     89 C31        -0.7290    7.4410   -0.5170 ca        1 MOL     -0.102151
     90 C32        -2.0340    6.6990   -2.4180 ca        1 MOL     -0.102151
     91 C33        -1.8480    7.6140   -1.3570 ca        1 MOL      0.175882
     92 O14        -2.7590    8.5100   -0.9690 oh        1 MOL     -0.391070
     93 H37        -0.5510    2.5470   -1.7640 hn        1 MOL      0.296680
     94 H38         1.6570    3.8410   -0.2800 h1        1 MOL     -0.025985
     95 H39         1.0310    4.0760   -3.2230 hc        1 MOL      0.001683
     96 H40         2.1930    5.0610   -2.3710 hc        1 MOL      0.001683
     97 H41         1.0750    6.3320   -0.1830 ha        1 MOL      0.159231
     98 H42        -1.0870    5.0880   -3.6260 ha        1 MOL      0.159231
     99 H43        -0.5870    8.0790    0.3470 ha        1 MOL      0.128705
    100 H44        -2.9600    6.7250   -2.9600 ha        1 MOL      0.128705
    101 H45        -3.4260    8.5350   -1.6530 ho        1 MOL      0.336425
    102 N10         3.7860    2.9460   -1.0350 n         1 MOL     -0.386003
    103 C34         4.9750    2.1210   -1.0500 c3        1 MOL      0.207781
    104 C35         5.5650    1.9760    0.3730 c         1 MOL      0.297839
    105 O15         5.7140    0.8510    0.9140 o         1 MOL     -0.424382
    106 C36         5.9950    2.6770   -2.0810 c3        1 MOL      0.067653
    107 C37         5.6090    2.6630   -3.5730 c3        1 MOL     -0.102880
    108 C38         7.3170    1.8540   -1.8900 c3        1 MOL     -0.310509
    109 C39         4.5960    3.7810   -4.0110 c3        1 MOL     -0.216012
    110 H46         3.8550    3.8510   -0.5940 hn        1 MOL      0.229175
    111 H47         4.7870    1.1060   -1.4020 h1        1 MOL      0.085202
    112 H48         6.2060    3.6850   -1.7510 hc        1 MOL     -0.012482
    113 H49         5.1470    1.6890   -3.7340 hc        1 MOL      0.067729
    114 H50         6.4960    2.7010   -4.2000 hc        1 MOL      0.067729
    115 H51         7.7910    2.0210   -0.9330 hc        1 MOL      0.075299
    116 H52         7.1460    0.7930   -2.1170 hc        1 MOL      0.075299
    117 H53         8.0300    2.1690   -2.6460 hc        1 MOL      0.075299
    118 H54         4.5150    3.8750   -5.0910 hc        1 MOL      0.057430
    119 H55         3.5430    3.5880   -3.8120 hc        1 MOL      0.057430
    120 H56         4.9500    4.7040   -3.5640 hc        1 MOL      0.057430
    121 N11         6.0580    3.1000    0.9780 n         1 MOL     -0.295368
    122 C40         6.6820    3.1140    2.3010 c3        1 MOL      0.162306
    123 C41         8.0430    2.3960    2.3320 c         1 MOL      0.181857
    124 O16         8.3180    1.8240    3.4060 o         1 MOL     -0.499241
    125 C42         6.9260    4.5690    2.7490 c3        1 MOL      0.254728
    126 O17         6.0380    5.5450    2.2020 oh        1 MOL     -0.586533
    127 H57         5.8700    4.0150    0.5950 hn        1 MOL      0.183315
    128 H58         6.0300    2.6620    3.0540 h1        1 MOL      0.081008
    129 H59         7.9750    4.8190    2.5730 h1        1 MOL     -0.003290
    130 H60         6.8360    4.5860    3.8350 h1        1 MOL     -0.003290
    131 H61         6.5690    6.3370    2.0570 ho        1 MOL      0.387859
    132 N12         8.8480    2.3900    1.2890 n         1 MOL     -0.008326
    133 C43        10.1420    1.7240    1.1990 c3        1 MOL      0.185237
    134 C44        10.1560    0.1550    1.3270 c         1 MOL      0.522059
    135 O18        11.1630   -0.3330    1.7140 o         1 MOL     -0.510001
    136 C45        11.1960    2.5340    2.0210 c3        1 MOL     -0.305802
    137 H62         8.7190    3.0600    0.5400 hn        1 MOL      0.116476
    138 H63        10.4250    1.9070    0.1600 h1        1 MOL      0.006881
    139 H64        10.7760    2.6770    3.0190 hc        1 MOL      0.078910
    140 H65        12.1580    2.0290    2.0490 hc        1 MOL      0.078910
    141 H66        11.2970    3.5580    1.6550 hc        1 MOL      0.078910
    142 N13         9.0840   -0.5240    0.9350 n         1 MOL     -0.510833
    143 C46         8.5800   -1.8680    1.2640 c3        1 MOL      0.495714
    144 C47         7.6430   -2.4020    0.1560 c         1 MOL      0.206030
    145 O19         7.1510   -1.5940   -0.7010 o         1 MOL     -0.385545
    146 C48         7.8640   -1.8190    2.6300 c3        1 MOL     -0.216337
    147 H67         8.4850   -0.0550    0.2690 hn        1 MOL      0.140298
    148 H68         9.4230   -2.5440    1.3430 h1        1 MOL     -0.041641
    149 H69         7.0530   -2.5420    2.7330 hc        1 MOL      0.069433
    150 H70         8.6290   -2.0010    3.3820 hc        1 MOL      0.069433
    151 H71         7.3580   -0.8620    2.7560 hc        1 MOL      0.069433
    152 N14         7.5040   -3.7200    0.0630 n         1 MOL     -0.356401
    153 C49         6.8240   -4.5220   -1.0050 c3        1 MOL     -0.176923
    154 C50         7.6520   -4.6610   -2.2880 c         1 MOL      0.495439
    155 O20         7.9220   -5.7430   -2.7470 o         1 MOL     -0.522544
    156 C51         5.3800   -4.0390   -1.4250 c3        1 MOL     -0.007864
    157 C52         4.5320   -4.1060   -0.1560 c3        1 MOL     -0.092726
    158 C53         3.0390   -3.7660   -0.4830 c         1 MOL      0.646503
    159 O21         2.6470   -2.5990   -0.6990 o         1 MOL     -0.726140
    160 O22         2.2220   -4.6970   -0.3970 o         1 MOL     -0.726140
    161 H72         7.9220   -4.2330    0.8170 hn        1 MOL      0.288984
    162 H73         6.6770   -5.4890   -0.5080 h1        1 MOL      0.136500
    163 H74         4.9200   -4.7380   -2.1270 hc        1 MOL      0.053474
    164 H75         5.4250   -3.0340   -1.8340 hc        1 MOL      0.053474
    165 H76         4.9720   -3.4960    0.6230 hc        1 MOL      0.028762
    166 H77         4.5100   -5.1650    0.1200 hc        1 MOL      0.028762
    167 N15         7.9830   -3.5690   -3.0110 n         1 MOL     -0.255523
    168 C54         8.4590   -3.5640   -4.3940 c3        1 MOL     -0.150431
    169 H78         7.8660   -4.2640   -4.9840 h1        1 MOL      0.082165
    170 H79         8.3580   -2.5620   -4.8110 h1        1 MOL      0.082165
    171 H80         9.5070   -3.8650   -4.4200 h1        1 MOL      0.082165
    172 H81         7.7400   -2.6810   -2.5930 hn        1 MOL      0.229148
    173 Ca1         0.1560   -3.2180   -1.0230 Ca        1 MOL      1.790093
    174 O23        -1.6590   -3.6190   -3.1490 oh        1 MOL     -0.791821
    175 H82        -2.0640   -4.4760   -2.9680 ho        1 MOL      0.390906
    176 H83        -2.3950   -3.0650   -3.4180 ho        1 MOL      0.390906
    177 O24         1.2190   -4.1760   -3.3120 oh        1 MOL     -0.791821
    178 H84         0.7420   -4.7980   -3.8580 ho        1 MOL      0.390906
    179 H85         1.7270   -3.6440   -3.9220 ho        1 MOL      0.390906
    180 O25         0.7580   -0.8870   -2.3400 oh        1 MOL     -0.791821
    181 H86         1.2070   -0.1510   -1.9220 ho        1 MOL      0.390906
    182 H87         0.2210   -0.4850   -3.0280 ho        1 MOL      0.390906
    183 O26        -0.9070   -5.8230   -0.6690 oh        1 MOL     -0.791821
    184 H88        -1.6410   -6.0300   -1.2450 ho        1 MOL      0.390906
    185 H89        -0.7740   -6.6280   -0.1490 ho        1 MOL      0.390906
@<TRIPOS>BOND
     1    1    2 1   
     2    1    4 1   
     3    1    5 1   
     4    1    6 1   
     5    2    3 2   
     6    2    7 1   
     7    7    8 1   
     8    7   15 1   
     9    8    9 1   
    10    8   11 1   
    11    8   16 1   
    12    9   10 2   
    13    9   19 1   
    14   11   12 1   
    15   11   17 1   
    16   11   18 1   
    17   12   13 1   
    18   12   14 1   
    19   19   20 1   
    20   19   28 1   
    21   20   21 1   
    22   20   23 1   
    23   20   29 1   
    24   21   22 2   
    25   21   41 1   
    26   23   24 1   
    27   23   30 1   
    28   23   31 1   
    29   24   25 1   
    30   24   32 1   
    31   24   33 1   
    32   25   26 1   
    33   25   34 1   
    34   25   35 1   
    35   26   27 1   
    36   26   36 1   
    37   26   37 1   
    38   27   38 1   
    39   27   39 1   
    40   27   40 1   
    41   41   42 1   
    42   41   49 1   
    43   42   43 1   
    44   42   45 1   
    45   42   50 1   
    46   43   44 2   
    47   43   53 1   
    48   45   46 1   
    49   45   51 1   
    50   45   52 1   
    51   46   47 1   
    52   46   48 1   
    53   53   54 1   
    54   53   57 1   
    55   54   55 1   
    56   54   58 1   
    57   54   59 1   
    58   55   56 2   
    59   55   60 1   
    60   60   61 1   
    61   60   68 1   
    62   61   62 1   
    63   61   64 1   
    64   61   69 1   
    65   62   63 2   
    66   62   74 1   
    67   64   65 1   
    68   64   70 1   
    69   64   71 1   
    70   65   66 1   
    71   65   67 2   
    72   66   72 1   
    73   66   73 1   
    74   74   75 1   
    75   74   78 1   
    76   75   76 1   
    77   75   79 1   
    78   75   80 1   
    79   76   77 2   
    80   76   81 1   
    81   81   82 1   
    82   81   93 1   
    83   82   83 1   
    84   82   85 1   
    85   82   94 1   
    86   83   84 2   
    87   83  102 1   
    88   85   86 1   
    89   85   95 1   
    90   85   96 1   
    91   86   87 ar  
    92   86   88 ar  
    93   87   89 ar  
    94   87   97 1   
    95   88   90 ar  
    96   88   98 1   
    97   89   91 ar  
    98   89   99 1   
    99   90   91 ar  
   100   90  100 1   
   101   91   92 1   
   102   92  101 1   
   103  102  103 1   
   104  102  110 1   
   105  103  104 1   
   106  103  106 1   
   107  103  111 1   
   108  104  105 2   
   109  104  121 1   
   110  106  107 1   
   111  106  108 1   
   112  106  112 1   
   113  107  109 1   
   114  107  113 1   
   115  107  114 1   
   116  108  115 1   
   117  108  116 1   
   118  108  117 1   
   119  109  118 1   
   120  109  119 1   
   121  109  120 1   
   122  121  122 1   
   123  121  127 1   
   124  122  123 1   
   125  122  125 1   
   126  122  128 1   
   127  123  124 2   
   128  123  132 1   
   129  125  126 1   
   130  125  129 1   
   131  125  130 1   
   132  126  131 1   
   133  132  133 1   
   134  132  137 1   
   135  133  134 1   
   136  133  136 1   
   137  133  138 1   
   138  134  135 2   
   139  134  142 1   
   140  136  139 1   
   141  136  140 1   
   142  136  141 1   
   143  142  143 1   
   144  142  147 1   
   145  143  144 1   
   146  143  146 1   
   147  143  148 1   
   148  144  145 2   
   149  144  152 1   
   150  146  149 1   
   151  146  150 1   
   152  146  151 1   
   153  152  153 1   
   154  152  161 1   
   155  153  154 1   
   156  153  156 1   
   157  153  162 1   
   158  154  155 2   
   159  154  167 1   
   160  156  157 1   
   161  156  163 1   
   162  156  164 1   
   163  157  158 1   
   164  157  165 1   
   165  157  166 1   
   166  158  159 1   
   167  158  160 1   
   168  167  168 1   
   169  167  172 1   
   170  168  169 1   
   171  168  170 1   
   172  168  171 1   
   173  174  175 1   
   174  174  176 1   
   175  177  178 1   
   176  177  179 1   
   177  180  181 1   
   178  180  182 1   
   179  183  184 1   
   180  183  185 1   
@<TRIPOS>SUBSTRUCTURE
     1 MOL         1 TEMP              0 ****  ****    0 ROOT
