@<TRIPOS>MOLECULE
MOL
  181   177     1     0     0
SMALL
resp


@<TRIPOS>ATOM
      1 C1          4.3850   -3.1180    3.8730 c3        1 MOL     -0.415340
      2 C2          5.7580   -2.6070    3.2850 c         1 MOL      0.710721
      3 O1          5.7900   -1.6980    2.4420 o         1 MOL     -0.597671
      4 H1          3.6230   -3.0880    3.0940 hc        1 MOL      0.111293
      5 H2          4.5010   -4.1420    4.2270 hc        1 MOL      0.111293
      6 H3          4.0830   -2.4780    4.7020 hc        1 MOL      0.111293
      7 N1          6.8880   -3.2400    3.5820 n         1 MOL     -0.462511
      8 C3          8.2090   -2.6520    3.2080 c3        1 MOL     -0.084488
      9 C4          8.4770   -2.6210    1.6600 c         1 MOL      0.562211
     10 O2          8.2790   -3.5980    0.9120 o         1 MOL     -0.562334
     11 C5          9.3560   -3.4790    3.8990 c3        1 MOL     -0.097724
     12 C6         10.7550   -2.7750    3.9480 c         1 MOL      0.632684
     13 O3         11.0580   -2.0660    4.9590 o         1 MOL     -0.703150
     14 O4         11.5180   -3.0160    2.9700 o         1 MOL     -0.703150
     15 H4          6.9990   -4.1110    4.0800 hn        1 MOL      0.294890
     16 H5          8.3120   -1.6550    3.6240 h1        1 MOL      0.093366
     17 H6          9.5070   -4.4820    3.4990 hc        1 MOL      0.010313
     18 H7          9.0280   -3.5700    4.9340 hc        1 MOL      0.010313
     19 N2          8.7910   -1.4570    1.0800 n         1 MOL     -0.261110
     20 C7          8.9460   -1.1530   -0.3350 c3        1 MOL     -0.032607
     21 C8          7.7400   -0.8660   -1.1870 c         1 MOL      0.538943
     22 O5          7.8070   -0.5790   -2.4020 o         1 MOL     -0.511897
     23 C9          9.8720    0.0560   -0.3860 c3        1 MOL     -0.218651
     24 H8          8.7010   -0.6410    1.6570 hn        1 MOL      0.189809
     25 H9          9.3940   -2.0450   -0.7620 h1        1 MOL      0.120466
     26 H10         9.4490    1.0060   -0.0380 hc        1 MOL      0.064022
     27 H11        10.7430   -0.1050    0.2470 hc        1 MOL      0.064022
     28 H12        10.1190    0.3750   -1.4010 hc        1 MOL      0.064022
     29 N3          6.6250   -0.9660   -0.4940 n         1 MOL     -0.575650
     30 C10         5.3480   -0.9710   -1.1400 c3        1 MOL      0.255109
     31 C11         5.2360    0.1280   -2.1900 c         1 MOL      0.482933
     32 O6          4.8690   -0.0970   -3.3780 o         1 MOL     -0.542430
     33 C12         4.9700   -2.3830   -1.6270 c3        1 MOL     -0.030078
     34 C13         3.5340   -2.5570   -2.0670 c         1 MOL      0.741581
     35 O7          2.6000   -1.9020   -1.5280 o         1 MOL     -0.797379
     36 O8          3.2270   -3.4290   -2.9280 o         1 MOL     -0.797379
     37 H13         6.5940   -1.3030    0.4620 hn        1 MOL      0.325777
     38 H14         4.6180   -0.8200   -0.3330 h1        1 MOL     -0.002356
     39 H15         5.0660   -3.0450   -0.7620 hc        1 MOL      0.015169
     40 H16         5.5910   -2.6690   -2.4760 hc        1 MOL      0.015169
     41 N4          5.5570    1.3360   -1.7610 n         1 MOL     -0.323219
     42 C14         5.6180    2.5070   -2.6700 c3        1 MOL     -0.307024
     43 C15         4.2720    3.0660   -3.2220 c         1 MOL      0.637518
     44 O9          4.3660    4.2010   -3.6610 o         1 MOL     -0.591157
     45 H17         5.9850    1.3990   -0.8420 hn        1 MOL      0.262658
     46 H18         6.3000    2.2870   -3.4890 h1        1 MOL      0.155441
     47 H19         6.0330    3.2820   -2.0320 h1        1 MOL      0.155441
     48 N5          3.1100    2.4320   -3.0270 n         1 MOL     -0.408381
     49 C16         1.7570    2.9890   -3.2940 c3        1 MOL     -0.059966
     50 C17         1.5330    4.2410   -2.3750 c         1 MOL      0.653277
     51 O10         1.9430    4.2150   -1.2240 o         1 MOL     -0.542324
     52 C18         0.6840    1.9710   -3.0480 c3        1 MOL      0.102238
     53 C19        -0.6770    2.2800   -3.6060 c         1 MOL      0.472664
     54 N6         -1.5430    1.3370   -3.3750 n         1 MOL     -0.609932
     55 O11        -0.8650    3.2090   -4.3320 o         1 MOL     -0.575106
     56 H20         3.2410    1.5770   -2.5020 hn        1 MOL      0.212659
     57 H21         1.7430    3.3050   -4.3430 h1        1 MOL      0.053040
     58 H22         0.5820    1.8890   -1.9690 hc        1 MOL      0.027699
     59 H23         0.8240    0.9520   -3.4160 hc        1 MOL      0.027699
     60 H24        -1.2940    0.4920   -2.8790 hn        1 MOL      0.301185
     61 H25        -2.4680    1.3230   -3.7820 hn        1 MOL      0.301185
     62 N7          0.8610    5.2860   -2.8720 n         1 MOL     -0.493590
     63 C20         0.7070    6.5580   -2.2020 c3        1 MOL      0.071770
     64 C21        -0.2970    6.6110   -1.0860 c         1 MOL      0.581831
     65 O12        -1.4840    6.4370   -1.3240 o         1 MOL     -0.513360
     66 H26         0.3930    5.2030   -3.7670 hn        1 MOL      0.302503
     67 H27         0.4630    7.3860   -2.8740 h1        1 MOL      0.034487
     68 H28         1.6530    6.9420   -1.8030 h1        1 MOL      0.034487
     69 N8          0.1660    6.9890    0.1400 n         1 MOL     -0.537091
     70 C22        -0.6940    7.4330    1.2380 c3        1 MOL     -0.169695
     71 C23        -1.3970    6.2700    1.9770 c         1 MOL      0.608721
     72 O13        -2.3120    6.6130    2.7260 o         1 MOL     -0.583904
     73 C24         0.0770    8.3330    2.1310 c3        1 MOL      0.389488
     74 C25         1.2590    7.6630    2.9300 c3        1 MOL     -0.386946
     75 O14         0.4060    9.5530    1.4130 oh        1 MOL     -0.600640
     76 H29         1.1420    7.2080    0.2140 hn        1 MOL      0.300935
     77 H30        -1.5460    8.0150    0.8710 h1        1 MOL      0.137760
     78 H31        -0.6640    8.6810    2.8540 h1        1 MOL      0.047055
     79 H32         1.0740    9.2720    0.7960 ho        1 MOL      0.359578
     80 H33         2.0330    7.2130    2.3030 hc        1 MOL      0.098985
     81 H34         1.6840    8.4180    3.5900 hc        1 MOL      0.098985
     82 H35         0.8950    6.8340    3.5440 hc        1 MOL      0.098985
     83 N9         -1.0610    4.9830    1.8110 n         1 MOL     -0.389164
     84 C26        -1.6200    3.8410    2.4480 c3        1 MOL     -0.004506
     85 C27        -1.6010    2.6650    1.4220 c         1 MOL      0.646909
     86 O15        -0.7750    2.7230    0.5310 o         1 MOL     -0.464839
     87 C28        -0.9540    3.5050    3.8020 c3        1 MOL      0.090970
     88 C29         0.5010    3.0700    3.8120 c3        1 MOL     -0.139735
     89 C30        -1.3140    4.4580    5.0240 c3        1 MOL     -0.330613
     90 C31         0.6750    1.6650    4.4230 c3        1 MOL     -0.039038
     91 H36        -0.5090    4.8840    0.9660 hn        1 MOL      0.230244
     92 H37        -2.6940    3.9380    2.6540 h1        1 MOL      0.054125
     93 H38        -1.5300    2.6060    4.0230 hc        1 MOL     -0.015207
     94 H39         1.0950    3.7950    4.3660 hc        1 MOL      0.069233
     95 H40         0.7730    2.9320    2.7630 hc        1 MOL      0.069233
     96 H41        -2.4000    4.6080    4.9780 hc        1 MOL      0.090615
     97 H42        -1.1310    4.0930    6.0360 hc        1 MOL      0.090615
     98 H43        -0.8760    5.4450    4.8600 hc        1 MOL      0.090615
     99 H44         0.4900    1.6140    5.4980 hc        1 MOL      0.018143
    100 H45         0.0680    0.9930    3.8100 hc        1 MOL      0.018143
    101 H46         1.7510    1.4860    4.3830 hc        1 MOL      0.018143
    102 N10        -2.4540    1.6620    1.4960 n         1 MOL     -0.616136
    103 C32        -2.4630    0.6530    0.3760 c3        1 MOL      0.315854
    104 C33        -3.8370    0.0250   -0.0120 c         1 MOL      0.474428
    105 O16        -3.9380   -1.0270   -0.6200 o         1 MOL     -0.467467
    106 C34        -1.4450   -0.4550    0.6500 c3        1 MOL     -0.168715
    107 C35        -0.9530   -1.1760   -0.6390 c         1 MOL      0.690816
    108 O17        -1.0900   -0.8400   -1.8140 o         1 MOL     -0.724556
    109 O18        -0.2890   -2.1910   -0.3850 o         1 MOL     -0.724556
    110 H47        -3.1010    1.5960    2.2730 hn        1 MOL      0.305307
    111 H48        -2.1200    1.1790   -0.5140 h1        1 MOL     -0.040522
    112 H49        -1.8970   -1.2250    1.2750 hc        1 MOL      0.064282
    113 H50        -0.5320   -0.0670    1.1050 hc        1 MOL      0.064282
    114 N11        -4.9010    0.6240    0.4740 n         1 MOL     -0.528751
    115 C36        -6.2590    0.1990    0.3090 c3        1 MOL      0.512249
    116 C37        -6.5920   -1.0700    1.0210 c         1 MOL      0.218198
    117 O19        -6.3250   -1.2640    2.2580 o         1 MOL     -0.574595
    118 C38        -7.2310    1.2540    0.7040 c3        1 MOL     -0.290011
    119 C39        -8.6720    0.9030    0.4010 ca        1 MOL      0.076805
    120 C40        -9.3330    1.3820   -0.7380 ca        1 MOL     -0.145606
    121 C41        -9.3400    0.0470    1.3360 ca        1 MOL     -0.145606
    122 C42       -10.6870    0.9700   -0.9470 ca        1 MOL     -0.142266
    123 C43       -10.5980   -0.4710    0.9590 ca        1 MOL     -0.142266
    124 C44       -11.2510    0.0640   -0.1380 ca        1 MOL     -0.060391
    125 H51        -4.7970    1.5430    0.8860 hn        1 MOL      0.219833
    126 H52        -6.4680    0.0790   -0.7610 h1        1 MOL     -0.073676
    127 H53        -6.9510    2.1630    0.1680 hc        1 MOL      0.095452
    128 H54        -7.2020    1.4380    1.7830 hc        1 MOL      0.095452
    129 H55        -8.7430    1.9710   -1.4360 ha        1 MOL      0.118494
    130 H56        -8.8000   -0.3650    2.1800 ha        1 MOL      0.118494
    131 H57       -11.2280    1.2600   -1.8350 ha        1 MOL      0.112279
    132 H58       -11.0020   -1.2500    1.5930 ha        1 MOL      0.112279
    133 H59       -12.2150   -0.3050   -0.4490 ha        1 MOL      0.085054
    134 N12        -7.2480   -2.0330    0.3290 n         1 MOL      0.249818
    135 C45        -7.7850   -3.2870    0.9260 c3        1 MOL     -0.103448
    136 C46        -6.6890   -4.1870    1.5340 c         1 MOL      0.301102
    137 O20        -6.9750   -5.0390    2.3220 o         1 MOL     -0.487406
    138 C47        -8.5830   -4.0350   -0.2830 c3        1 MOL      0.050839
    139 C48        -7.9540   -3.4440   -1.4920 c3        1 MOL     -0.150003
    140 C49        -7.4660   -1.9480   -1.1320 c3        1 MOL     -0.099248
    141 H60        -8.5400   -3.0010    1.6590 h1        1 MOL      0.088291
    142 H61        -8.5700   -5.1200   -0.2620 hc        1 MOL      0.019739
    143 H62        -9.6170   -3.7520   -0.1060 hc        1 MOL      0.019739
    144 H63        -7.0760   -4.0200   -1.7570 hc        1 MOL      0.052252
    145 H64        -8.6740   -3.2380   -2.2820 hc        1 MOL      0.052252
    146 H65        -6.4670   -1.8900   -1.5650 h1        1 MOL      0.049881
    147 H66        -8.1800   -1.1820   -1.4080 h1        1 MOL      0.049881
    148 N13        -5.3980   -3.9470    1.1300 n         1 MOL     -0.012712
    149 C50        -4.1940   -4.5530    1.5300 c3        1 MOL     -0.198241
    150 C51        -3.8150   -4.1870    2.9050 c         1 MOL      0.494206
    151 O21        -3.2390   -4.9900    3.6430 o         1 MOL     -0.552910
    152 C52        -3.0630   -4.2830    0.5430 c3        1 MOL      0.118251
    153 C53        -3.4600   -4.4890   -0.9780 c3        1 MOL     -0.266244
    154 C54        -2.2430   -4.6780   -1.8760 c         1 MOL      0.781697
    155 O22        -1.7950   -5.8540   -1.9740 o         1 MOL     -0.745569
    156 O23        -1.8450   -3.7590   -2.6350 o         1 MOL     -0.745569
    157 H67        -5.2870   -3.2670    0.3890 hn        1 MOL      0.076917
    158 H68        -4.3570   -5.6260    1.4390 h1        1 MOL      0.097520
    159 H69        -2.1600   -4.8560    0.7060 hc        1 MOL      0.010579
    160 H70        -2.8070   -3.2320    0.6860 hc        1 MOL      0.010579
    161 H71        -4.1330   -3.6940   -1.2880 hc        1 MOL      0.059678
    162 H72        -4.1420   -5.3360   -1.0820 hc        1 MOL      0.059678
    163 N14        -4.0890   -2.9400    3.2470 n         1 MOL     -0.121788
    164 C55        -3.8900   -2.2910    4.5230 c3        1 MOL     -0.323280
    165 H73        -2.9630   -2.6500    4.9710 h1        1 MOL      0.109979
    166 H74        -3.8290   -1.2120    4.3780 h1        1 MOL      0.109979
    167 H75        -4.7250   -2.5220    5.1830 h1        1 MOL      0.109979
    168 H76        -4.3300   -2.2850    2.5140 hn        1 MOL      0.208341
    169 Ca1         0.5530   -2.7340   -2.7900 Ca        1 MOL      1.801851
    170 O24        -1.0140   -1.5960   -4.7230 oh        1 MOL     -0.818348
    171 H77        -0.9020   -1.4490   -5.6650 ho        1 MOL      0.400378
    172 H78        -1.7730   -1.0700   -4.4940 ho        1 MOL      0.400378
    173 O25         0.5140   -4.0790   -5.0600 oh        1 MOL     -0.818348
    174 H79         0.5040   -3.6360   -5.9080 ho        1 MOL      0.400378
    175 H80         0.7370   -4.9850   -5.2560 ho        1 MOL      0.400378
    176 O26         0.8390   -5.1370   -1.8530 oh        1 MOL     -0.818348
    177 H81         1.4040   -5.7020   -1.3330 ho        1 MOL      0.400378
    178 H82         0.0630   -5.6780   -2.0400 ho        1 MOL      0.400378
    179 O27         2.2170   -0.8730   -4.2830 oh        1 MOL     -0.818348
    180 H83         2.9850   -0.5200   -3.8440 ho        1 MOL      0.400378
    181 H84         2.4810   -0.9850   -5.1950 ho        1 MOL      0.400378
@<TRIPOS>BOND
     1    1    2 1   
     2    1    4 1   
     3    1    5 1   
     4    1    6 1   
     5    2    3 2   
     6    2    7 1   
     7    7    8 1   
     8    7   15 1   
     9    8    9 1   
    10    8   11 1   
    11    8   16 1   
    12    9   10 2   
    13    9   19 1   
    14   11   12 1   
    15   11   17 1   
    16   11   18 1   
    17   12   13 1   
    18   12   14 1   
    19   19   20 1   
    20   19   24 1   
    21   20   21 1   
    22   20   23 1   
    23   20   25 1   
    24   21   22 2   
    25   21   29 1   
    26   23   26 1   
    27   23   27 1   
    28   23   28 1   
    29   29   30 1   
    30   29   37 1   
    31   30   31 1   
    32   30   33 1   
    33   30   38 1   
    34   31   32 2   
    35   31   41 1   
    36   33   34 1   
    37   33   39 1   
    38   33   40 1   
    39   34   35 1   
    40   34   36 1   
    41   41   42 1   
    42   41   45 1   
    43   42   43 1   
    44   42   46 1   
    45   42   47 1   
    46   43   44 2   
    47   43   48 1   
    48   48   49 1   
    49   48   56 1   
    50   49   50 1   
    51   49   52 1   
    52   49   57 1   
    53   50   51 2   
    54   50   62 1   
    55   52   53 1   
    56   52   58 1   
    57   52   59 1   
    58   53   54 1   
    59   53   55 2   
    60   54   60 1   
    61   54   61 1   
    62   62   63 1   
    63   62   66 1   
    64   63   64 1   
    65   63   67 1   
    66   63   68 1   
    67   64   65 2   
    68   64   69 1   
    69   69   70 1   
    70   69   76 1   
    71   70   71 1   
    72   70   73 1   
    73   70   77 1   
    74   71   72 2   
    75   71   83 1   
    76   73   74 1   
    77   73   75 1   
    78   73   78 1   
    79   74   80 1   
    80   74   81 1   
    81   74   82 1   
    82   75   79 1   
    83   83   84 1   
    84   83   91 1   
    85   84   85 1   
    86   84   87 1   
    87   84   92 1   
    88   85   86 2   
    89   85  102 1   
    90   87   88 1   
    91   87   89 1   
    92   87   93 1   
    93   88   90 1   
    94   88   94 1   
    95   88   95 1   
    96   89   96 1   
    97   89   97 1   
    98   89   98 1   
    99   90   99 1   
   100   90  100 1   
   101   90  101 1   
   102  102  103 1   
   103  102  110 1   
   104  103  104 1   
   105  103  106 1   
   106  103  111 1   
   107  104  105 2   
   108  104  114 1   
   109  106  107 1   
   110  106  112 1   
   111  106  113 1   
   112  107  108 1   
   113  107  109 1   
   114  114  115 1   
   115  114  125 1   
   116  115  116 1   
   117  115  118 1   
   118  115  126 1   
   119  116  117 2   
   120  116  134 1   
   121  118  119 1   
   122  118  127 1   
   123  118  128 1   
   124  119  120 ar  
   125  119  121 ar  
   126  120  122 ar  
   127  120  129 1   
   128  121  123 ar  
   129  121  130 1   
   130  122  124 ar  
   131  122  131 1   
   132  123  124 ar  
   133  123  132 1   
   134  124  133 1   
   135  134  135 1   
   136  134  140 1   
   137  135  136 1   
   138  135  138 1   
   139  135  141 1   
   140  136  137 2   
   141  136  148 1   
   142  138  139 1   
   143  138  142 1   
   144  138  143 1   
   145  139  140 1   
   146  139  144 1   
   147  139  145 1   
   148  140  146 1   
   149  140  147 1   
   150  148  149 1   
   151  148  157 1   
   152  149  150 1   
   153  149  152 1   
   154  149  158 1   
   155  150  151 2   
   156  150  163 1   
   157  152  153 1   
   158  152  159 1   
   159  152  160 1   
   160  153  154 1   
   161  153  161 1   
   162  153  162 1   
   163  154  155 1   
   164  154  156 1   
   165  163  164 1   
   166  163  168 1   
   167  164  165 1   
   168  164  166 1   
   169  164  167 1   
   170  170  171 1   
   171  170  172 1   
   172  173  174 1   
   173  173  175 1   
   174  176  177 1   
   175  176  178 1   
   176  179  180 1   
   177  179  181 1   
@<TRIPOS>SUBSTRUCTURE
     1 MOL         1 TEMP              0 ****  ****    0 ROOT
