@<TRIPOS>MOLECULE
MOL
  192   187     1     0     0
SMALL
resp


@<TRIPOS>ATOM
      1 C1         -5.1420   -5.5140    2.6220 c3        1 MOL     -0.087393
      2 C2         -4.9480   -4.2550    1.8110 c         1 MOL      0.759702
      3 O1         -4.6290   -4.2890    0.6420 o         1 MOL     -0.631559
      4 H1         -5.6550   -6.2600    2.0160 hc        1 MOL      0.014565
      5 H2         -4.1710   -5.9010    2.9300 hc        1 MOL      0.014565
      6 H3         -5.7410   -5.2890    3.5040 hc        1 MOL      0.014565
      7 N1         -5.1890   -3.1040    2.4150 n         1 MOL     -0.541366
      8 C3         -4.8150   -1.8210    1.9140 c3        1 MOL      0.150845
      9 C4         -3.3040   -1.5380    1.8100 c         1 MOL      0.046590
     10 O2         -3.0250   -0.6920    0.9790 o         1 MOL     -0.307498
     11 C5         -5.4350   -0.6230    2.6560 c3        1 MOL     -0.325290
     12 C6         -5.4860   -0.8290    4.1860 c         1 MOL      0.702377
     13 O3         -4.8720   -0.0720    4.9890 o         1 MOL     -0.692970
     14 O4         -6.2600   -1.7010    4.7000 o         1 MOL     -0.692970
     15 H4         -5.5880   -3.2510    3.3320 hn        1 MOL      0.289787
     16 H5         -5.1810   -1.8010    0.8910 h1        1 MOL      0.069731
     17 H6         -6.4310   -0.4720    2.2560 hc        1 MOL      0.122370
     18 H7         -4.9130    0.2950    2.3520 hc        1 MOL      0.122370
     19 N2         -2.4270   -2.3120    2.4460 n         1 MOL     -0.033245
     20 C7         -0.9920   -2.0280    2.3170 c3        1 MOL      0.046470
     21 C8         -0.3680   -2.9600    1.2860 c         1 MOL      0.303015
     22 O5         -0.6680   -4.1710    1.2030 o         1 MOL     -0.500611
     23 C9         -0.3000   -2.2990    3.7210 c3        1 MOL     -0.175198
     24 C10        -0.8940   -1.5350    4.9470 c3        1 MOL      0.029632
     25 C11        -1.8980   -2.1830    5.9820 c3        1 MOL     -0.059728
     26 C12        -1.8920   -1.3480    7.2950 c3        1 MOL     -0.095129
     27 N3         -2.4830    0.0430    7.0310 n4        1 MOL     -0.223708
     28 H8         -2.7110   -3.1540    2.9160 hn        1 MOL      0.190041
     29 H9         -0.8700   -0.9660    2.0890 h1        1 MOL      0.043773
     30 H10         0.7610   -2.0720    3.5940 hc        1 MOL      0.094978
     31 H11        -0.3220   -3.3570    3.9860 hc        1 MOL      0.094978
     32 H12        -1.4530   -0.7030    4.5170 hc        1 MOL     -0.003739
     33 H13        -0.0380   -1.1400    5.4900 hc        1 MOL     -0.003739
     34 H14        -1.5230   -3.1340    6.3790 hc        1 MOL      0.056068
     35 H15        -2.9200   -2.3420    5.6540 hc        1 MOL      0.056068
     36 H16        -0.8540   -1.2570    7.6220 hx        1 MOL      0.122909
     37 H17        -2.4450   -1.9120    8.0470 hx        1 MOL      0.122909
     38 H18        -2.2850    0.6330    7.8240 hn        1 MOL      0.281145
     39 H19        -2.0480    0.4680    6.2200 hn        1 MOL      0.281145
     40 H20        -3.4900    0.0800    6.9430 hn        1 MOL      0.281145
     41 N4          0.5850   -2.5280    0.4510 n         1 MOL     -0.160535
     42 C13         1.0880   -1.2460    0.0930 c3        1 MOL     -0.041952
     43 C14         1.7690   -0.4970    1.2610 c         1 MOL      0.454778
     44 O6          1.2200    0.4710    1.8140 o         1 MOL     -0.518299
     45 C15         0.1230   -0.3890   -0.7510 c3        1 MOL      0.032969
     46 C16        -0.2340   -1.0850   -2.0610 c         1 MOL      0.635337
     47 O7          0.3770   -2.0880   -2.4680 o         1 MOL     -0.769345
     48 O8         -1.1000   -0.5260   -2.7970 o         1 MOL     -0.769345
     49 H21         0.8410   -3.2900   -0.1590 hn        1 MOL      0.245608
     50 H22         1.9160   -1.3960   -0.6040 h1        1 MOL      0.044659
     51 H23         0.5640    0.5920   -0.9300 hc        1 MOL      0.068643
     52 H24        -0.8010   -0.2540   -0.1770 hc        1 MOL      0.068643
     53 N5          2.9870   -0.9240    1.7260 n         1 MOL     -0.486064
     54 C17         3.6840   -2.1550    1.2360 c3        1 MOL      0.104317
     55 C18         4.7300   -2.6350    2.2620 c         1 MOL      0.586070
     56 O9          4.5030   -2.4020    3.4340 o         1 MOL     -0.561004
     57 H25         3.4580   -0.6030    2.5620 hn        1 MOL      0.332770
     58 H26         4.3010   -1.9470    0.3590 h1        1 MOL      0.003636
     59 H27         2.9710   -2.9370    0.9830 h1        1 MOL      0.003636
     60 N6          5.8310   -3.2720    1.8680 n         1 MOL     -0.509822
     61 C19         6.1780   -3.7940    0.4980 c3        1 MOL      0.087842
     62 C20         6.8900   -2.7010   -0.2670 c         1 MOL      0.507560
     63 O10         7.5550   -1.7860    0.2650 o         1 MOL     -0.458885
     64 C21         6.9070   -5.1600    0.4020 c3        1 MOL     -0.127154
     65 C22         8.0010   -5.3620    1.4050 c         1 MOL      0.728710
     66 O11         7.7180   -5.4800    2.6140 o         1 MOL     -0.678078
     67 O12         9.1910   -5.4740    0.9960 o         1 MOL     -0.678078
     68 H28         6.4520   -3.5840    2.6100 hn        1 MOL      0.319415
     69 H29         5.2680   -4.1130   -0.0060 h1        1 MOL      0.019783
     70 H30         7.2260   -5.3620   -0.6190 hc        1 MOL      0.019839
     71 H31         6.2350   -5.9860    0.6140 hc        1 MOL      0.019839
     72 N7          6.8660   -2.8520   -1.6470 n         1 MOL     -0.358627
     73 C23         7.7230   -2.0270   -2.5250 c3        1 MOL     -0.375497
     74 C24         7.2490   -0.5920   -2.7380 c         1 MOL      0.564197
     75 O13         7.8590    0.1220   -3.5070 o         1 MOL     -0.566001
     76 H32         6.3310   -3.6340   -1.9720 hn        1 MOL      0.266738
     77 H33         7.6390   -2.4460   -3.5280 h1        1 MOL      0.196234
     78 H34         8.7460   -1.9870   -2.1480 h1        1 MOL      0.196234
     79 N8          6.1800   -0.1360   -2.0850 n         1 MOL     -0.200060
     80 C25         5.5530    1.2300   -2.0430 c3        1 MOL      0.046180
     81 C26         5.0340    1.6780   -0.7010 c         1 MOL      0.361122
     82 O14         4.6130    0.7660    0.0090 o         1 MOL     -0.339194
     83 C27         4.6590    1.4220   -3.2190 c3        1 MOL      0.094838
     84 C28         3.9060    2.7540   -3.2000 c3        1 MOL     -0.234026
     85 O15         3.6180    0.4730   -3.2590 oh        1 MOL     -0.472970
     86 H35         5.8280   -0.7600   -1.3640 hn        1 MOL      0.069197
     87 H36         6.4100    1.8970   -2.1650 h1        1 MOL      0.052765
     88 H37         5.2030    1.2110   -4.1370 h1        1 MOL      0.059104
     89 H38         4.0450   -0.3820   -3.3530 ho        1 MOL      0.314328
     90 H39         3.2960    2.8760   -4.0980 hc        1 MOL      0.075714
     91 H40         3.3310    2.7920   -2.2740 hc        1 MOL      0.075714
     92 H41         4.6630    3.5300   -3.0900 hc        1 MOL      0.075714
     93 N9          5.1830    2.9680   -0.3060 n         1 MOL     -0.268641
     94 C29         4.9370    3.4540    1.0880 c3        1 MOL     -0.248263
     95 C30         3.6300    4.1590    1.2570 c         1 MOL      0.577698
     96 O16         3.1030    4.3230    2.4080 o         1 MOL     -0.539402
     97 C31         6.0670    4.4590    1.5210 c3        1 MOL      0.025519
     98 C32         7.4080    3.8080    1.4350 c3        1 MOL      0.145731
     99 C33         5.8360    5.0300    3.0060 c3        1 MOL     -0.293210
    100 C34         8.5910    4.7120    1.5040 c3        1 MOL     -0.263636
    101 H42         5.6220    3.6110   -0.9540 hn        1 MOL      0.278262
    102 H43         4.9100    2.5910    1.7580 h1        1 MOL      0.154466
    103 H44         6.0720    5.2180    0.7520 hc        1 MOL      0.020675
    104 H45         7.4990    3.3810    0.4450 hc        1 MOL      0.014975
    105 H46         7.5470    2.9010    2.0260 hc        1 MOL      0.014975
    106 H47         4.9930    5.7180    3.0760 hc        1 MOL      0.095353
    107 H48         5.7770    4.2240    3.7280 hc        1 MOL      0.095353
    108 H49         6.6470    5.5700    3.4800 hc        1 MOL      0.095353
    109 H50         9.4010    4.1590    1.0110 hc        1 MOL      0.057946
    110 H51         8.3860    5.5690    0.8590 hc        1 MOL      0.057946
    111 H52         8.7650    5.1040    2.5030 hc        1 MOL      0.057946
    112 N10         2.9640    4.5380    0.1570 n         1 MOL     -0.253524
    113 C35         1.6190    5.1190    0.0800 c3        1 MOL     -0.252014
    114 C36         0.5680    3.9580   -0.1450 c         1 MOL      0.754332
    115 O17         0.8280    3.0640   -0.9680 o         1 MOL     -0.508719
    116 C37         1.4810    6.1940   -1.0270 c3        1 MOL      0.446845
    117 C38         2.0420    5.7500   -2.3860 c3        1 MOL     -0.235648
    118 O18         1.9690    7.4540   -0.5350 oh        1 MOL     -0.614358
    119 H53         3.4710    4.2160   -0.6460 hn        1 MOL      0.156725
    120 H54         1.4630    5.5910    1.0520 h1        1 MOL      0.114708
    121 H55         0.4050    6.2640   -1.1970 h1        1 MOL     -0.036614
    122 H56         1.3510    7.7230    0.1460 ho        1 MOL      0.374075
    123 H57         1.6230    4.7750   -2.6040 hc        1 MOL      0.062110
    124 H58         1.5910    6.4630   -3.0770 hc        1 MOL      0.062110
    125 H59         3.1310    5.7940   -2.4580 hc        1 MOL      0.062110
    126 N11        -0.5370    3.9950    0.6430 n         1 MOL     -0.743095
    127 C39        -1.5020    2.9180    0.8030 c3        1 MOL      0.360325
    128 C40        -2.9030    3.2670    0.3460 c         1 MOL      0.484981
    129 O19        -3.3610    4.3760    0.4070 o         1 MOL     -0.603181
    130 C41        -1.6170    2.2550    2.2150 c3        1 MOL      0.383097
    131 C42        -2.5730    2.8920    3.2240 c3        1 MOL     -0.051505
    132 O20        -0.2800    2.3000    2.7050 oh        1 MOL     -0.707980
    133 H60        -0.4820    4.6720    1.3930 hn        1 MOL      0.330992
    134 H61        -1.0780    2.0760    0.2490 h1        1 MOL     -0.133773
    135 H62        -1.9390    1.2230    2.0840 h1        1 MOL      0.105351
    136 H63         0.3050    1.7060    2.2370 ho        1 MOL      0.430157
    137 H64        -2.4170    3.9060    3.5820 hc        1 MOL     -0.012847
    138 H65        -3.5840    2.7610    2.8320 hc        1 MOL     -0.012847
    139 H66        -2.5960    2.2340    4.0930 hc        1 MOL     -0.012847
    140 N12        -3.7450    2.2500    0.0200 n         1 MOL     -0.186616
    141 C43        -5.0320    2.3510   -0.7630 c3        1 MOL     -0.293640
    142 C44        -5.2050    1.2190   -1.8070 c         1 MOL      0.615778
    143 O21        -5.6730    1.4070   -2.9380 o         1 MOL     -0.614543
    144 C45        -6.1310    2.4620    0.3500 c3        1 MOL     -0.034005
    145 C46        -7.5030    2.8320   -0.2780 c3        1 MOL     -0.068199
    146 C47        -7.7370    4.0700   -1.1190 c3        1 MOL     -0.237081
    147 C48        -7.1960    5.2010   -0.2900 c3        1 MOL      0.220047
    148 N13        -7.5390    6.5100   -0.7430 n4        1 MOL     -0.304067
    149 H67        -3.3080    1.3530    0.1090 hn        1 MOL      0.036601
    150 H68        -4.9820    3.2490   -1.3840 h1        1 MOL      0.178775
    151 H69        -5.9380    3.2300    1.0950 hc        1 MOL      0.047831
    152 H70        -6.2720    1.5500    0.9340 hc        1 MOL      0.047831
    153 H71        -8.2170    2.7100    0.5470 hc        1 MOL      0.065786
    154 H72        -7.8140    1.9880   -0.8900 hc        1 MOL      0.065786
    155 H73        -8.7890    4.2240   -1.3380 hc        1 MOL      0.082249
    156 H74        -7.1470    4.0060   -2.0310 hc        1 MOL      0.082249
    157 H75        -6.1140    5.1060   -0.2910 hx        1 MOL      0.041356
    158 H76        -7.5790    5.0980    0.7330 hx        1 MOL      0.041356
    159 H77        -7.0770    7.2170   -0.1880 hn        1 MOL      0.274591
    160 H78        -7.1890    6.7810   -1.6500 hn        1 MOL      0.274591
    161 H79        -8.5290    6.7220   -0.7950 hn        1 MOL      0.274591
    162 N14        -4.8250   -0.0200   -1.4550 n         1 MOL     -0.067065
    163 C49        -5.0890   -1.2110   -2.3180 c3        1 MOL     -0.074287
    164 C50        -6.5720   -1.6610   -2.0740 c         1 MOL      0.215385
    165 O22        -6.9050   -2.0320   -0.9420 o         1 MOL     -0.435432
    166 C51        -4.0800   -2.2840   -1.8660 c3        1 MOL      0.186908
    167 C52        -4.2610   -3.6400   -2.6630 c3        1 MOL     -0.554791
    168 C53        -4.0320   -3.4470   -4.2160 c         1 MOL      0.691639
    169 O23        -2.9360   -3.0760   -4.6980 o         1 MOL     -0.731126
    170 O24        -4.9890   -3.6910   -4.9090 o         1 MOL     -0.731126
    171 H80        -4.4150   -0.2180   -0.5470 hn        1 MOL      0.043126
    172 H81        -4.9020   -0.9750   -3.3660 h1        1 MOL      0.105731
    173 H82        -4.0560   -2.4660   -0.7920 hc        1 MOL      0.003302
    174 H83        -3.0550   -1.9860   -2.0900 hc        1 MOL      0.003302
    175 H84        -5.2550   -4.0480   -2.5130 hc        1 MOL      0.205257
    176 H85        -3.5900   -4.3990   -2.2450 hc        1 MOL      0.205257
    177 N15        -7.3490   -1.8120   -3.1430 n         1 MOL     -0.178369
    178 C54        -8.7390   -2.2270   -2.9810 c3        1 MOL     -0.067968
    179 H86        -8.7700   -3.2610   -2.6360 h1        1 MOL      0.060506
    180 H87        -9.2280   -1.5860   -2.2480 h1        1 MOL      0.060506
    181 H88        -9.2560   -2.1480   -3.9370 h1        1 MOL      0.060506
    182 H89        -7.0260   -1.6530   -4.0920 hn        1 MOL      0.298618
    183 Ca1        -0.6150   -2.0020   -4.8570 Ca        1 MOL      1.731829
    184 O25        -2.5340   -0.2470   -5.8940 oh        1 MOL     -0.847704
    185 H90        -3.0600   -0.7910   -6.4870 ho        1 MOL      0.417889
    186 H91        -3.0360    0.5550   -5.7890 ho        1 MOL      0.417889
    187 O26         1.9910   -3.1840   -4.6930 oh        1 MOL     -0.847704
    188 H92         2.2730   -4.0260   -4.3200 ho        1 MOL      0.417889
    189 H93         2.6420   -2.5600   -4.3800 ho        1 MOL      0.417889
    190 O27         1.5550   -0.3650   -5.0010 oh        1 MOL     -0.847704
    191 H94         1.9460    0.3390   -4.4640 ho        1 MOL      0.417889
    192 H95         1.9250   -0.2320   -5.8740 ho        1 MOL      0.417889
@<TRIPOS>BOND
     1    1    2 1   
     2    1    4 1   
     3    1    5 1   
     4    1    6 1   
     5    2    3 2   
     6    2    7 1   
     7    7    8 1   
     8    7   15 1   
     9    8    9 1   
    10    8   11 1   
    11    8   16 1   
    12    9   10 2   
    13    9   19 1   
    14   11   12 1   
    15   11   17 1   
    16   11   18 1   
    17   12   13 1   
    18   12   14 1   
    19   19   20 1   
    20   19   28 1   
    21   20   21 1   
    22   20   23 1   
    23   20   29 1   
    24   21   22 2   
    25   21   41 1   
    26   23   24 1   
    27   23   30 1   
    28   23   31 1   
    29   24   25 1   
    30   24   32 1   
    31   24   33 1   
    32   25   26 1   
    33   25   34 1   
    34   25   35 1   
    35   26   27 1   
    36   26   36 1   
    37   26   37 1   
    38   27   38 1   
    39   27   39 1   
    40   27   40 1   
    41   41   42 1   
    42   41   49 1   
    43   42   43 1   
    44   42   45 1   
    45   42   50 1   
    46   43   44 2   
    47   43   53 1   
    48   45   46 1   
    49   45   51 1   
    50   45   52 1   
    51   46   47 1   
    52   46   48 1   
    53   53   54 1   
    54   53   57 1   
    55   54   55 1   
    56   54   58 1   
    57   54   59 1   
    58   55   56 2   
    59   55   60 1   
    60   60   61 1   
    61   60   68 1   
    62   61   62 1   
    63   61   64 1   
    64   61   69 1   
    65   62   63 2   
    66   62   72 1   
    67   64   65 1   
    68   64   70 1   
    69   64   71 1   
    70   65   66 1   
    71   65   67 1   
    72   72   73 1   
    73   72   76 1   
    74   73   74 1   
    75   73   77 1   
    76   73   78 1   
    77   74   75 2   
    78   74   79 1   
    79   79   80 1   
    80   79   86 1   
    81   80   81 1   
    82   80   83 1   
    83   80   87 1   
    84   81   82 2   
    85   81   93 1   
    86   83   84 1   
    87   83   85 1   
    88   83   88 1   
    89   84   90 1   
    90   84   91 1   
    91   84   92 1   
    92   85   89 1   
    93   93   94 1   
    94   93  101 1   
    95   94   95 1   
    96   94   97 1   
    97   94  102 1   
    98   95   96 2   
    99   95  112 1   
   100   97   98 1   
   101   97   99 1   
   102   97  103 1   
   103   98  100 1   
   104   98  104 1   
   105   98  105 1   
   106   99  106 1   
   107   99  107 1   
   108   99  108 1   
   109  100  109 1   
   110  100  110 1   
   111  100  111 1   
   112  112  113 1   
   113  112  119 1   
   114  113  114 1   
   115  113  116 1   
   116  113  120 1   
   117  114  115 2   
   118  114  126 1   
   119  116  117 1   
   120  116  118 1   
   121  116  121 1   
   122  117  123 1   
   123  117  124 1   
   124  117  125 1   
   125  118  122 1   
   126  126  127 1   
   127  126  133 1   
   128  127  128 1   
   129  127  130 1   
   130  127  134 1   
   131  128  129 2   
   132  128  140 1   
   133  130  131 1   
   134  130  132 1   
   135  130  135 1   
   136  131  137 1   
   137  131  138 1   
   138  131  139 1   
   139  132  136 1   
   140  140  141 1   
   141  140  149 1   
   142  141  142 1   
   143  141  144 1   
   144  141  150 1   
   145  142  143 2   
   146  142  162 1   
   147  144  145 1   
   148  144  151 1   
   149  144  152 1   
   150  145  146 1   
   151  145  153 1   
   152  145  154 1   
   153  146  147 1   
   154  146  155 1   
   155  146  156 1   
   156  147  148 1   
   157  147  157 1   
   158  147  158 1   
   159  148  159 1   
   160  148  160 1   
   161  148  161 1   
   162  162  163 1   
   163  162  171 1   
   164  163  164 1   
   165  163  166 1   
   166  163  172 1   
   167  164  165 2   
   168  164  177 1   
   169  166  167 1   
   170  166  173 1   
   171  166  174 1   
   172  167  168 1   
   173  167  175 1   
   174  167  176 1   
   175  168  169 1   
   176  168  170 1   
   177  177  178 1   
   178  177  182 1   
   179  178  179 1   
   180  178  180 1   
   181  178  181 1   
   182  184  185 1   
   183  184  186 1   
   184  187  188 1   
   185  187  189 1   
   186  190  191 1   
   187  190  192 1   
@<TRIPOS>SUBSTRUCTURE
     1 MOL         1 TEMP              0 ****  ****    0 ROOT
