@<TRIPOS>MOLECULE
MOL
  181   177     1     0     0
SMALL
resp


@<TRIPOS>ATOM
      1 C1          6.1390   -5.7450    4.5340 c3        1 MOL     -0.275183
      2 C2          5.3120   -4.8700    3.5990 c         1 MOL      0.678556
      3 O1          4.2490   -4.3720    3.9600 o         1 MOL     -0.553071
      4 H1          7.1970   -5.5200    4.3990 hc        1 MOL      0.059640
      5 H2          5.8540   -5.5430    5.5670 hc        1 MOL      0.059640
      6 H3          5.9580   -6.7950    4.3050 hc        1 MOL      0.059640
      7 N1          5.7610   -4.6740    2.3200 n         1 MOL     -0.471140
      8 C3          6.9990   -5.1870    1.6900 c3        1 MOL     -0.077336
      9 C4          6.8570   -5.5210    0.1770 c         1 MOL      0.479983
     10 O2          5.7960   -5.9300   -0.2860 o         1 MOL     -0.476213
     11 C5          8.1400   -4.1590    1.9640 c3        1 MOL     -0.227067
     12 C6          7.8060   -2.7420    1.5000 c         1 MOL      0.628754
     13 O3          8.2150   -2.3760    0.3680 o         1 MOL     -0.627239
     14 O4          7.2930   -1.8930    2.2270 o         1 MOL     -0.627239
     15 H4          5.1850   -4.1050    1.7240 hn        1 MOL      0.334763
     16 H5          7.2790   -6.1240    2.1580 h1        1 MOL      0.116919
     17 H6          9.1050   -4.5100    1.5800 hc        1 MOL      0.047587
     18 H7          8.2230   -4.0910    3.0490 hc        1 MOL      0.047587
     19 N2          7.9010   -5.2910   -0.6320 n         1 MOL     -0.412741
     20 C7          8.0710   -5.3830   -2.0910 c3        1 MOL      0.324906
     21 C8          7.0880   -4.4990   -2.8040 c         1 MOL      0.337382
     22 O5          6.4670   -4.8870   -3.7460 o         1 MOL     -0.497901
     23 C9          8.0510   -6.8500   -2.4480 c3        1 MOL     -0.517301
     24 H8          8.7550   -4.9670   -0.1980 hn        1 MOL      0.246161
     25 H9          9.0510   -4.9850   -2.3540 h1        1 MOL      0.010435
     26 H10         7.0850   -7.2120   -2.1110 hc        1 MOL      0.134964
     27 H11         8.2210   -6.9710   -3.5200 hc        1 MOL      0.134964
     28 H12         8.7280   -7.4890   -1.8880 hc        1 MOL      0.134964
     29 N3          6.8000   -3.3000   -2.1890 n         1 MOL      0.006662
     30 C10         5.8150   -2.3550   -2.7020 c3        1 MOL     -0.087775
     31 C11         6.4120   -0.9210   -2.8620 c         1 MOL      0.344226
     32 O6          7.4510   -0.5940   -2.4510 o         1 MOL     -0.455528
     33 C12         4.5970   -2.4180   -1.7290 c3        1 MOL     -0.261633
     34 C13         4.8440   -2.1180   -0.2290 c         1 MOL      0.729700
     35 O7          5.3440   -1.0140   -0.0210 o         1 MOL     -0.660860
     36 O8          4.3810   -2.7930    0.7160 o         1 MOL     -0.660860
     37 H13         7.3590   -3.0900   -1.3740 hn        1 MOL     -0.102756
     38 H14         5.3490   -2.6920   -3.6240 h1        1 MOL      0.085680
     39 H15         4.2800   -3.4430   -1.8670 hc        1 MOL      0.103805
     40 H16         3.7850   -1.7550   -2.0330 hc        1 MOL      0.103805
     41 N4          5.5960    0.0060   -3.4940 n         1 MOL     -0.251054
     42 C14         5.9380    1.4320   -3.7390 c3        1 MOL     -0.300259
     43 C15         5.9830    2.2410   -2.4850 c         1 MOL      0.829525
     44 O9          6.1360    1.7200   -1.3650 o         1 MOL     -0.737778
     45 H17         4.7160   -0.4080   -3.7640 hn        1 MOL      0.259272
     46 H18         5.1420    1.7970   -4.3910 h1        1 MOL      0.138227
     47 H19         6.8250    1.4080   -4.3780 h1        1 MOL      0.138227
     48 N5          5.7550    3.5380   -2.6060 n         1 MOL     -0.588476
     49 C16         5.6520    4.4080   -1.4170 c3        1 MOL     -0.004984
     50 C17         4.3210    4.1660   -0.6930 c         1 MOL      0.754476
     51 O10         3.2620    3.7910   -1.1850 o         1 MOL     -0.508842
     52 C18         5.7590    5.8720   -1.8460 c3        1 MOL     -0.334509
     53 C19         7.1250    6.2160   -2.3460 c         1 MOL      0.714171
     54 N6          7.8530    7.0290   -1.5940 n         1 MOL     -0.762357
     55 O11         7.5930    5.8930   -3.4300 o         1 MOL     -0.573276
     56 H20         5.7750    3.9630   -3.5220 hn        1 MOL      0.316108
     57 H21         6.4970    4.2710   -0.7400 h1        1 MOL      0.051816
     58 H22         5.5120    6.5580   -1.0350 hc        1 MOL      0.130029
     59 H23         5.0050    6.1190   -2.6030 hc        1 MOL      0.130029
     60 H24         7.4470    7.2550   -0.6870 hn        1 MOL      0.350138
     61 H25         8.8170    7.1270   -1.8550 hn        1 MOL      0.350138
     62 N7          4.4070    4.3750    0.6170 n         1 MOL     -0.562276
     63 C20         3.1840    4.4760    1.4520 c3        1 MOL      0.007760
     64 C21         2.3280    5.6860    1.0830 c         1 MOL      0.583673
     65 O12         2.8470    6.5880    0.4160 o         1 MOL     -0.577105
     66 H26         5.2680    4.7860    0.9460 hn        1 MOL      0.282113
     67 H27         3.4240    4.5630    2.5100 h1        1 MOL      0.085362
     68 H28         2.6820    3.5320    1.2550 h1        1 MOL      0.085362
     69 N8          1.0070    5.6820    1.3850 n         1 MOL     -0.462177
     70 C22         0.2550    4.6180    2.0770 c3        1 MOL     -0.145627
     71 C23        -1.0030    4.1590    1.3200 c         1 MOL      0.614581
     72 O13        -1.7060    4.8730    0.6670 o         1 MOL     -0.498425
     73 C24        -0.2870    5.1840    3.4520 c3        1 MOL      0.422316
     74 C25         0.9770    5.4620    4.3710 c3        1 MOL     -0.298140
     75 O14        -0.9720    6.4160    3.3360 oh        1 MOL     -0.595901
     76 H29         0.4340    6.4610    1.0850 hn        1 MOL      0.339088
     77 H30         0.8180    3.7030    2.2060 h1        1 MOL      0.067528
     78 H31        -1.0020    4.4720    3.8610 h1        1 MOL     -0.014178
     79 H32        -1.5030    6.4990    4.1270 ho        1 MOL      0.403016
     80 H33         1.4700    4.4920    4.3930 hc        1 MOL      0.052052
     81 H34         1.6310    6.2190    3.9270 hc        1 MOL      0.052052
     82 H35         0.7000    5.7160    5.3940 hc        1 MOL      0.052052
     83 N9         -1.3630    2.9410    1.5500 n         1 MOL     -0.512350
     84 C26        -2.6490    2.2070    1.2150 c3        1 MOL     -0.065252
     85 C27        -3.8850    2.8740    1.8780 c         1 MOL      0.758377
     86 O15        -3.7380    3.5850    2.9000 o         1 MOL     -0.583396
     87 C28        -2.5750    0.7070    1.4210 c3        1 MOL     -0.123524
     88 C29        -2.2240    0.3060    2.9050 c3        1 MOL      0.278065
     89 C30        -1.6090    0.1120    0.3970 c3        1 MOL     -0.360459
     90 C31        -2.6440   -1.0940    3.2830 c3        1 MOL     -0.314394
     91 H36        -0.6590    2.4040    2.0290 hn        1 MOL      0.284214
     92 H37        -2.7580    2.2910    0.1390 h1        1 MOL      0.151723
     93 H38        -3.5730    0.3510    1.1720 hc        1 MOL      0.117393
     94 H39        -2.6840    1.0270    3.5790 hc        1 MOL     -0.064735
     95 H40        -1.1750    0.5430    3.0460 hc        1 MOL     -0.064735
     96 H41        -0.6150    0.4500    0.6930 hc        1 MOL      0.114268
     97 H42        -1.6070   -0.9800    0.3820 hc        1 MOL      0.114268
     98 H43        -1.7900    0.5230   -0.5970 hc        1 MOL      0.114268
     99 H44        -2.5700   -1.1500    4.3640 hc        1 MOL      0.068570
    100 H45        -3.6540   -1.3160    2.9370 hc        1 MOL      0.068570
    101 H46        -1.8370   -1.7930    3.0250 hc        1 MOL      0.068570
    102 N10        -5.0990    2.6670    1.3650 n         1 MOL     -0.727621
    103 C32        -5.4540    2.2130    0.0110 c3        1 MOL      0.274684
    104 C33        -6.8550    1.5410   -0.0280 c         1 MOL      0.522981
    105 O16        -7.6780    1.6110    0.8800 o         1 MOL     -0.549607
    106 C34        -5.3780    3.3770   -0.9640 c3        1 MOL     -0.034858
    107 C35        -6.2690    4.5300   -0.6240 c         1 MOL      0.680090
    108 O17        -6.0430    5.3280    0.3800 o         1 MOL     -0.670114
    109 O18        -7.2030    4.7000   -1.3990 o         1 MOL     -0.670114
    110 H47        -5.8480    3.0270    1.9390 hn        1 MOL      0.343118
    111 H48        -4.7880    1.3950   -0.2790 h1        1 MOL     -0.035552
    112 H49        -5.5540    2.9520   -1.9510 hc        1 MOL     -0.032991
    113 H50        -4.3440    3.6970   -0.8350 hc        1 MOL     -0.032991
    114 N11        -7.1790    0.8310   -1.0850 n         1 MOL     -0.557381
    115 C36        -8.4300    0.1210   -1.3390 c3        1 MOL      0.454545
    116 C37        -8.3650   -1.0020   -2.3500 c         1 MOL      0.106939
    117 O19        -7.7780   -0.8050   -3.4040 o         1 MOL     -0.431324
    118 C38        -9.4970    1.0810   -1.6830 c3        1 MOL     -0.304291
    119 C39       -10.9320    0.6270   -1.5020 ca        1 MOL      0.233834
    120 C40       -11.6770    0.5270   -2.7210 ca        1 MOL     -0.187322
    121 C41       -11.5220    0.4920   -0.2480 ca        1 MOL     -0.187322
    122 C42       -13.0960    0.4300   -2.6470 ca        1 MOL     -0.177303
    123 C43       -12.9330    0.3660   -0.2030 ca        1 MOL     -0.177303
    124 C44       -13.6690    0.4330   -1.3730 ca        1 MOL     -0.068342
    125 H51        -6.4510    0.6850   -1.7820 hn        1 MOL      0.348400
    126 H52        -8.6390   -0.3100   -0.3680 h1        1 MOL     -0.020540
    127 H53        -9.3500    1.3340   -2.7390 hc        1 MOL      0.096058
    128 H54        -9.4590    2.0030   -1.1060 hc        1 MOL      0.096058
    129 H55       -11.1940    0.6390   -3.6850 ha        1 MOL      0.146183
    130 H56       -10.9900    0.6090    0.6780 ha        1 MOL      0.146183
    131 H57       -13.7770    0.4360   -3.4820 ha        1 MOL      0.114368
    132 H58       -13.4510    0.4340    0.7460 ha        1 MOL      0.114368
    133 H59       -14.7480    0.4150   -1.3700 ha        1 MOL      0.064440
    134 N12        -8.7760   -2.2520   -2.0360 n         1 MOL      0.082299
    135 C45        -9.4630   -2.6810   -0.8120 c3        1 MOL     -0.127639
    136 C46        -8.5280   -2.8630    0.3770 c         1 MOL      0.606235
    137 O20        -8.8710   -2.4390    1.4910 o         1 MOL     -0.580838
    138 C47       -10.0770   -4.0480   -1.1050 c3        1 MOL     -0.067556
    139 C48        -9.2800   -4.6210   -2.2440 c3        1 MOL      0.064344
    140 C49        -8.9040   -3.3320   -3.0110 c3        1 MOL     -0.223036
    141 H60       -10.3000   -2.0270   -0.5460 h1        1 MOL      0.080755
    142 H61        -9.9820   -4.7200   -0.2560 hc        1 MOL      0.029807
    143 H62       -11.1210   -3.9700   -1.4060 hc        1 MOL      0.029807
    144 H63        -8.3840   -5.0570   -1.8080 hc        1 MOL      0.010769
    145 H64        -9.7920   -5.3400   -2.8860 hc        1 MOL      0.010769
    146 H65        -7.9130   -3.4370   -3.4410 h1        1 MOL      0.089439
    147 H66        -9.6120   -3.0800   -3.8030 h1        1 MOL      0.089439
    148 N13        -7.2440   -3.3060    0.1430 n         1 MOL     -0.514598
    149 C50        -6.3840   -3.4270    1.3100 c3        1 MOL      0.291139
    150 C51        -6.7530   -4.6000    2.1690 c         1 MOL      0.440413
    151 O21        -7.1020   -5.6340    1.6380 o         1 MOL     -0.547697
    152 C52        -4.9250   -3.5450    0.8230 c3        1 MOL     -0.185672
    153 C53        -4.3770   -2.2690    0.1260 c3        1 MOL     -0.297551
    154 C54        -4.5770   -2.2000   -1.4090 c         1 MOL      0.767241
    155 O22        -4.2510   -3.1710   -2.0900 o         1 MOL     -0.707211
    156 O23        -4.9520   -1.1070   -1.9020 o         1 MOL     -0.707211
    157 H67        -6.9820   -3.6440   -0.7740 hn        1 MOL      0.329517
    158 H68        -6.3260   -2.4670    1.8420 h1        1 MOL      0.095699
    159 H69        -4.8490   -4.4770    0.2470 hc        1 MOL      0.054269
    160 H70        -4.3240   -3.7990    1.6980 hc        1 MOL      0.054269
    161 H71        -3.3010   -2.2850    0.2780 hc        1 MOL      0.075180
    162 H72        -4.8020   -1.4000    0.6230 hc        1 MOL      0.075180
    163 N14        -6.6700   -4.4600    3.5360 n         1 MOL     -0.450335
    164 C55        -6.6220   -3.3740    4.4800 c3        1 MOL      0.030140
    165 H73        -7.5380   -3.3670    5.0700 h1        1 MOL      0.035881
    166 H74        -5.7660   -3.5050    5.1410 h1        1 MOL      0.035881
    167 H75        -6.5270   -2.4300    3.9440 h1        1 MOL      0.035881
    168 H76        -7.1170   -5.2760    3.9320 hn        1 MOL      0.270653
    169 Ca1         7.6230    0.0950    0.1680 Ca        1 MOL      1.758092
    170 O24        10.3070   -0.3320   -0.8060 oh        1 MOL     -0.810817
    171 H77        11.0160   -0.1950   -0.1770 ho        1 MOL      0.383772
    172 H78        10.7550   -0.5120   -1.6280 ho        1 MOL      0.383772
    173 O25         6.7180    1.5240    2.3100 oh        1 MOL     -0.810817
    174 H79         5.8230    1.8290    2.1430 ho        1 MOL      0.383772
    175 H80         7.0580    2.1210    2.9720 ho        1 MOL      0.383772
    176 O26         9.1000    2.2950   -0.7770 oh        1 MOL     -0.810817
    177 H81         9.5310    1.8500   -1.4990 ho        1 MOL      0.383772
    178 H82         9.7050    2.9860   -0.5160 ho        1 MOL      0.383772
    179 O27         9.6950    0.2800    2.5380 oh        1 MOL     -0.810817
    180 H83         9.8820   -0.4090    3.1740 ho        1 MOL      0.383772
    181 H84        10.2480    1.0130    2.8060 ho        1 MOL      0.383772
@<TRIPOS>BOND
     1    1    2 1   
     2    1    4 1   
     3    1    5 1   
     4    1    6 1   
     5    2    3 2   
     6    2    7 1   
     7    7    8 1   
     8    7   15 1   
     9    8    9 1   
    10    8   11 1   
    11    8   16 1   
    12    9   10 2   
    13    9   19 1   
    14   11   12 1   
    15   11   17 1   
    16   11   18 1   
    17   12   13 1   
    18   12   14 1   
    19   19   20 1   
    20   19   24 1   
    21   20   21 1   
    22   20   23 1   
    23   20   25 1   
    24   21   22 2   
    25   21   29 1   
    26   23   26 1   
    27   23   27 1   
    28   23   28 1   
    29   29   30 1   
    30   29   37 1   
    31   30   31 1   
    32   30   33 1   
    33   30   38 1   
    34   31   32 2   
    35   31   41 1   
    36   33   34 1   
    37   33   39 1   
    38   33   40 1   
    39   34   35 1   
    40   34   36 1   
    41   41   42 1   
    42   41   45 1   
    43   42   43 1   
    44   42   46 1   
    45   42   47 1   
    46   43   44 2   
    47   43   48 1   
    48   48   49 1   
    49   48   56 1   
    50   49   50 1   
    51   49   52 1   
    52   49   57 1   
    53   50   51 2   
    54   50   62 1   
    55   52   53 1   
    56   52   58 1   
    57   52   59 1   
    58   53   54 1   
    59   53   55 2   
    60   54   60 1   
    61   54   61 1   
    62   62   63 1   
    63   62   66 1   
    64   63   64 1   
    65   63   67 1   
    66   63   68 1   
    67   64   65 2   
    68   64   69 1   
    69   69   70 1   
    70   69   76 1   
    71   70   71 1   
    72   70   73 1   
    73   70   77 1   
    74   71   72 2   
    75   71   83 1   
    76   73   74 1   
    77   73   75 1   
    78   73   78 1   
    79   74   80 1   
    80   74   81 1   
    81   74   82 1   
    82   75   79 1   
    83   83   84 1   
    84   83   91 1   
    85   84   85 1   
    86   84   87 1   
    87   84   92 1   
    88   85   86 2   
    89   85  102 1   
    90   87   88 1   
    91   87   89 1   
    92   87   93 1   
    93   88   90 1   
    94   88   94 1   
    95   88   95 1   
    96   89   96 1   
    97   89   97 1   
    98   89   98 1   
    99   90   99 1   
   100   90  100 1   
   101   90  101 1   
   102  102  103 1   
   103  102  110 1   
   104  103  104 1   
   105  103  106 1   
   106  103  111 1   
   107  104  105 2   
   108  104  114 1   
   109  106  107 1   
   110  106  112 1   
   111  106  113 1   
   112  107  108 1   
   113  107  109 1   
   114  114  115 1   
   115  114  125 1   
   116  115  116 1   
   117  115  118 1   
   118  115  126 1   
   119  116  117 2   
   120  116  134 1   
   121  118  119 1   
   122  118  127 1   
   123  118  128 1   
   124  119  120 ar  
   125  119  121 ar  
   126  120  122 ar  
   127  120  129 1   
   128  121  123 ar  
   129  121  130 1   
   130  122  124 ar  
   131  122  131 1   
   132  123  124 ar  
   133  123  132 1   
   134  124  133 1   
   135  134  135 1   
   136  134  140 1   
   137  135  136 1   
   138  135  138 1   
   139  135  141 1   
   140  136  137 2   
   141  136  148 1   
   142  138  139 1   
   143  138  142 1   
   144  138  143 1   
   145  139  140 1   
   146  139  144 1   
   147  139  145 1   
   148  140  146 1   
   149  140  147 1   
   150  148  149 1   
   151  148  157 1   
   152  149  150 1   
   153  149  152 1   
   154  149  158 1   
   155  150  151 2   
   156  150  163 1   
   157  152  153 1   
   158  152  159 1   
   159  152  160 1   
   160  153  154 1   
   161  153  161 1   
   162  153  162 1   
   163  154  155 1   
   164  154  156 1   
   165  163  164 1   
   166  163  168 1   
   167  164  165 1   
   168  164  166 1   
   169  164  167 1   
   170  170  171 1   
   171  170  172 1   
   172  173  174 1   
   173  173  175 1   
   174  176  177 1   
   175  176  178 1   
   176  179  180 1   
   177  179  181 1   
@<TRIPOS>SUBSTRUCTURE
     1 MOL         1 TEMP              0 ****  ****    0 ROOT
