@<TRIPOS>MOLECULE
MOL
  194   186     1     0     0
SMALL
resp


@<TRIPOS>ATOM
      1 C1          1.4910    1.1000    2.1890 c3        1 MOL     -0.516164
      2 C2          2.6810    0.7550    1.2740 c         1 MOL      0.851228
      3 O1          2.7930    1.3360    0.2090 o         1 MOL     -0.612909
      4 H1          0.8080    1.7640    1.6600 hc        1 MOL      0.132266
      5 H2          0.9660    0.1850    2.4650 hc        1 MOL      0.132266
      6 H3          1.8560    1.5950    3.0890 hc        1 MOL      0.132266
      7 N1          3.6080   -0.1350    1.6600 n         1 MOL     -0.855442
      8 C3          4.9990   -0.0950    1.2700 c3        1 MOL      0.391326
      9 C4          5.6910   -1.4880    1.3210 c         1 MOL      0.302526
     10 O2          6.8090   -1.6310    0.8180 o         1 MOL     -0.397002
     11 C5          5.8000    0.7790    2.2050 c3        1 MOL     -0.196419
     12 C6          5.7620    0.3530    3.7100 c         1 MOL      0.687298
     13 O3          6.6950    0.6640    4.4810 o         1 MOL     -0.706421
     14 O4          4.8640   -0.4490    4.0280 o         1 MOL     -0.706421
     15 H4          3.4310   -0.6740    2.4990 hn        1 MOL      0.371869
     16 H5          5.1300    0.4270    0.3190 h1        1 MOL      0.000170
     17 H6          5.3450    1.7720    2.2590 hc        1 MOL      0.069461
     18 H7          6.8160    0.8980    1.8210 hc        1 MOL      0.069461
     19 N2          5.0430   -2.4910    1.9260 n         1 MOL     -0.302246
     20 C7          5.4940   -3.8920    2.0610 c3        1 MOL      0.133378
     21 C8          6.0830   -4.4090    0.7810 c         1 MOL      0.456810
     22 O5          7.1840   -4.9690    0.7720 o         1 MOL     -0.503467
     23 C9          6.3920   -4.0440    3.3950 c3        1 MOL     -0.240077
     24 C10         5.4220   -3.8480    4.6050 c3        1 MOL      0.383233
     25 C11         6.1260   -3.9710    5.9470 c3        1 MOL     -0.294226
     26 C12         7.0980   -2.7660    6.1990 c3        1 MOL      0.131489
     27 N3          6.4430   -1.4220    6.2920 n4        1 MOL     -0.351733
     28 H8          4.1390   -2.2780    2.3180 hn        1 MOL      0.229403
     29 H9          4.5540   -4.4150    2.2390 h1        1 MOL      0.048274
     30 H10         7.1890   -3.2950    3.4500 hc        1 MOL      0.091869
     31 H11         6.9080   -5.0030    3.4340 hc        1 MOL      0.091869
     32 H12         4.6150   -4.5660    4.4810 hc        1 MOL     -0.086169
     33 H13         5.0240   -2.8340    4.5230 hc        1 MOL     -0.086169
     34 H14         6.5980   -4.9410    6.1140 hc        1 MOL      0.071469
     35 H15         5.3190   -3.8830    6.6680 hc        1 MOL      0.071469
     36 H16         7.9900   -2.7190    5.5850 hx        1 MOL      0.057637
     37 H17         7.5090   -2.9980    7.1840 hx        1 MOL      0.057637
     38 H18         7.1330   -0.6880    6.3410 hn        1 MOL      0.302675
     39 H19         5.9630   -1.1940    5.4330 hn        1 MOL      0.302675
     40 H20         5.7380   -1.3310    7.0090 hn        1 MOL      0.302675
     41 N4          5.2810   -4.3200   -0.3060 n         1 MOL     -0.498800
     42 C13         5.6660   -4.8490   -1.6780 c3        1 MOL      0.376880
     43 C14         6.2960   -3.7480   -2.5190 c         1 MOL      0.334903
     44 O6          6.6040   -3.9790   -3.6970 o         1 MOL     -0.565565
     45 C15         4.4930   -5.5610   -2.3130 c3        1 MOL     -0.373418
     46 C16         3.7210   -6.6690   -1.5780 c         1 MOL      0.753950
     47 O7          2.6580   -7.0600   -2.0200 o         1 MOL     -0.718866
     48 O8          4.2390   -7.2490   -0.5770 o         1 MOL     -0.718866
     49 H21         4.3780   -3.9000   -0.1070 hn        1 MOL      0.242183
     50 H22         6.4790   -5.5440   -1.4740 h1        1 MOL      0.058782
     51 H23         4.8930   -6.1340   -3.1510 hc        1 MOL      0.069421
     52 H24         3.8740   -4.7760   -2.7680 hc        1 MOL      0.069421
     53 N5          6.5790   -2.5640   -1.9870 n         1 MOL     -0.134322
     54 C17         6.9050   -1.3660   -2.7890 c3        1 MOL      0.042755
     55 C18         8.0450   -0.5950   -2.1150 c         1 MOL      0.373840
     56 O9          9.1340   -1.1740   -1.8160 o         1 MOL     -0.521868
     57 H25         6.3530   -2.4900   -0.9970 hn        1 MOL      0.079165
     58 H26         6.0120   -0.7760   -2.9540 h1        1 MOL      0.059482
     59 H27         7.2110   -1.6840   -3.7890 h1        1 MOL      0.059482
     60 N6          7.9780    0.6930   -1.8670 n         1 MOL     -0.478615
     61 C19         6.9200    1.6590   -2.2560 c3        1 MOL      0.380100
     62 C20         6.6650    2.4900   -1.0200 c         1 MOL      0.318059
     63 O10         7.5110    2.5810   -0.1330 o         1 MOL     -0.504335
     64 C21         7.5820    2.5450   -3.3890 c3        1 MOL     -0.486471
     65 C22         7.7740    1.8020   -4.6880 c         1 MOL      0.656970
     66 N7          8.8060    1.0100   -4.8550 n         1 MOL     -0.744565
     67 O11         6.8840    1.8140   -5.5630 o         1 MOL     -0.574506
     68 H28         8.7970    1.0900   -1.4380 hn        1 MOL      0.322961
     69 H29         5.9830    1.1880   -2.5580 h1        1 MOL      0.054239
     70 H30         8.5690    2.9020   -3.1060 hc        1 MOL      0.148418
     71 H31         7.0690    3.4900   -3.5500 hc        1 MOL      0.148418
     72 H32         9.5530    0.9440   -4.1790 hn        1 MOL      0.366526
     73 H33         8.8000    0.3780   -5.6380 hn        1 MOL      0.366526
     74 N8          5.5070    3.1550   -0.9490 n         1 MOL     -0.183332
     75 C23         4.4230    3.3740   -1.8890 c3        1 MOL     -0.353996
     76 C24         3.4960    4.5080   -1.4550 c         1 MOL      0.859809
     77 O12         4.0900    5.5280   -1.1630 o         1 MOL     -0.586674
     78 H34         5.3430    3.5880   -0.0500 hn        1 MOL      0.238314
     79 H35         3.7640    2.4980   -1.9020 h1        1 MOL      0.100899
     80 H36         4.9090    3.6900   -2.8070 h1        1 MOL      0.100899
     81 N9          2.1860    4.2980   -1.3650 n         1 MOL     -0.697353
     82 C25         1.1990    5.1900   -0.7610 c3        1 MOL      0.211836
     83 C26        -0.0530    4.5260   -0.2680 c         1 MOL      0.650690
     84 O13        -0.4720    3.4660   -0.5980 o         1 MOL     -0.549791
     85 C27         0.9190    6.4250   -1.6670 c3        1 MOL     -0.160759
     86 C28         0.1820    7.6870   -1.1290 ca        1 MOL      0.102290
     87 C29        -1.1600    8.0250   -1.5290 ca        1 MOL     -0.200105
     88 C30         0.9010    8.4920   -0.1750 ca        1 MOL     -0.200105
     89 C31        -1.7950    9.1640   -0.9920 ca        1 MOL     -0.203122
     90 C32         0.1820    9.5690    0.3320 ca        1 MOL     -0.203122
     91 C33        -1.1370    9.8870   -0.0060 ca        1 MOL      0.276467
     92 O14        -1.7430   10.9160    0.6500 oh        1 MOL     -0.470859
     93 H37         1.8690    3.4240   -1.7520 hn        1 MOL      0.334438
     94 H38         1.6370    5.5990    0.1440 h1        1 MOL      0.023184
     95 H39         0.4360    6.0530   -2.5690 hc        1 MOL      0.071123
     96 H40         1.8720    6.7960   -2.0570 hc        1 MOL      0.071123
     97 H41        -1.7520    7.4250   -2.1860 ha        1 MOL      0.150469
     98 H42         1.8060    8.2160    0.3520 ha        1 MOL      0.150469
     99 H43        -2.7720    9.4340   -1.3600 ha        1 MOL      0.137041
    100 H44         0.6730   10.0470    1.1580 ha        1 MOL      0.137041
    101 H45        -1.1000   11.3150    1.2400 ho        1 MOL      0.344312
    102 N10        -0.7800    5.2310    0.5910 n         1 MOL     -0.537706
    103 C34        -2.1460    4.8040    0.9750 c3        1 MOL     -0.176689
    104 C35        -3.2740    4.7980   -0.1110 c         1 MOL      0.701409
    105 O15        -3.3050    5.7000   -0.9760 o         1 MOL     -0.512252
    106 C36        -2.5390    5.7180    2.1210 c3        1 MOL      0.143443
    107 C37        -2.0680    5.2320    3.5130 c3        1 MOL     -0.002127
    108 C38        -2.2850    7.2350    1.9580 c3        1 MOL      0.007740
    109 C39        -3.0850    5.6670    4.5900 c3        1 MOL     -0.131212
    110 H46        -0.3830    6.1020    0.9290 hn        1 MOL      0.271421
    111 H47        -2.0650    3.8080    1.4160 h1        1 MOL      0.113166
    112 H48        -3.6230    5.5850    2.1170 hc        1 MOL     -0.019709
    113 H49        -1.0860    5.6270    3.7860 hc        1 MOL      0.016192
    114 H50        -2.0310    4.1530    3.6050 hc        1 MOL      0.016192
    115 H51        -2.9980    7.7800    2.5840 hc        1 MOL      0.006890
    116 H52        -1.2810    7.5570    2.2240 hc        1 MOL      0.006890
    117 H53        -2.6680    7.4910    0.9720 hc        1 MOL      0.006890
    118 H54        -3.1800    6.7360    4.7790 hc        1 MOL      0.028650
    119 H55        -4.0920    5.3130    4.3980 hc        1 MOL      0.028650
    120 H56        -2.7470    5.1780    5.5120 hc        1 MOL      0.028650
    121 N11        -4.0720    3.7400   -0.1110 n         1 MOL     -0.502235
    122 C40        -5.2400    3.5580   -0.9850 c3        1 MOL     -0.035934
    123 C41        -5.5080    2.1210   -1.4540 c         1 MOL      0.851133
    124 O16        -5.0460    1.1460   -0.8200 o         1 MOL     -0.591796
    125 C42        -6.4930    4.1330   -0.3350 c3        1 MOL      0.120651
    126 O17        -6.7200    3.7060    0.9920 oh        1 MOL     -0.566794
    127 H57        -3.9720    3.0060    0.5810 hn        1 MOL      0.304174
    128 H58        -4.9950    4.0320   -1.9350 h1        1 MOL      0.062752
    129 H59        -7.3710    3.8510   -0.9230 h1        1 MOL      0.015594
    130 H60        -6.3850    5.2070   -0.4430 h1        1 MOL      0.015594
    131 H61        -7.3650    4.3550    1.2870 ho        1 MOL      0.406562
    132 N12        -6.1370    1.9570   -2.6260 n         1 MOL     -0.692663
    133 C43        -6.4300    0.6510   -3.2850 c3        1 MOL      0.336997
    134 C44        -7.2110   -0.3890   -2.4210 c         1 MOL      0.525558
    135 O18        -6.9620   -1.6210   -2.4830 o         1 MOL     -0.563959
    136 C45        -5.2080    0.0260   -3.9860 c3        1 MOL     -0.413134
    137 H62        -6.4410    2.7760   -3.1440 hn        1 MOL      0.317808
    138 H63        -7.1020    0.8720   -4.1160 h1        1 MOL      0.035521
    139 H64        -5.6120   -0.8070   -4.5530 hc        1 MOL      0.120022
    140 H65        -4.7720    0.8560   -4.5470 hc        1 MOL      0.120022
    141 H66        -4.4530   -0.3110   -3.2710 hc        1 MOL      0.120022
    142 N13        -8.1620    0.0390   -1.5830 n         1 MOL     -0.611227
    143 C46        -9.1640   -0.8550   -0.9100 c3        1 MOL      0.328238
    144 C47        -8.5530   -1.8320    0.0870 c         1 MOL      0.505439
    145 O19        -8.9620   -2.9480    0.1860 o         1 MOL     -0.536699
    146 C48       -10.1090   -1.4520   -1.9110 c3        1 MOL     -0.567715
    147 H67        -8.4050    1.0090   -1.6320 hn        1 MOL      0.298241
    148 H68        -9.6990   -0.1830   -0.2540 h1        1 MOL      0.041902
    149 H69        -9.5590   -2.0800   -2.6030 hc        1 MOL      0.162085
    150 H70       -10.8180   -1.9970   -1.2880 hc        1 MOL      0.162085
    151 H71       -10.6190   -0.7100   -2.5300 hc        1 MOL      0.162085
    152 N14        -7.5170   -1.3850    0.7780 n         1 MOL     -0.488430
    153 C49        -6.6490   -2.1080    1.7390 c3        1 MOL     -0.094741
    154 C50        -7.1740   -1.9780    3.2500 c         1 MOL      0.613313
    155 O20        -6.9470   -2.9150    4.0520 o         1 MOL     -0.520252
    156 C51        -5.2190   -1.6280    1.4800 c3        1 MOL      0.186523
    157 C52        -4.0530   -2.4550    2.1230 c3        1 MOL     -0.453042
    158 C53        -3.7980   -3.7250    1.4070 c         1 MOL      0.972517
    159 O21        -2.9950   -3.7820    0.5050 o         1 MOL     -0.828346
    160 O22        -4.5220   -4.7240    1.5820 o         1 MOL     -0.828346
    161 H72        -7.2460   -0.4130    0.7190 hn        1 MOL      0.242687
    162 H73        -6.6190   -3.1700    1.4910 h1        1 MOL      0.107493
    163 H74        -5.0950   -0.6120    1.8620 hc        1 MOL     -0.002108
    164 H75        -5.0740   -1.5380    0.4000 hc        1 MOL     -0.002108
    165 H76        -4.3070   -2.6220    3.1630 hc        1 MOL      0.108062
    166 H77        -3.1790   -1.8380    1.9370 hc        1 MOL      0.108062
    167 N15        -7.7170   -0.8250    3.6490 n         1 MOL     -0.377705
    168 C54        -8.4450   -0.6790    4.9030 c3        1 MOL     -0.181278
    169 H78        -8.0740   -1.4070    5.6250 h1        1 MOL      0.105753
    170 H79        -8.2980    0.3270    5.2940 h1        1 MOL      0.105753
    171 H80        -9.5070   -0.8500    4.7290 h1        1 MOL      0.105753
    172 H81        -7.7590   -0.1250    2.9250 hn        1 MOL      0.259648
    173 Ca1        -4.4210   -5.5040   -1.0230 Ca        1 MOL      1.814140
    174 O23        -6.8160   -4.4330   -0.6810 oh        1 MOL     -0.858438
    175 H82        -7.5700   -5.0040   -0.8330 ho        1 MOL      0.428400
    176 H83        -7.1830   -3.5610   -0.5780 ho        1 MOL      0.428400
    177 O24        -5.9530   -5.5400   -3.3540 oh        1 MOL     -0.858438
    178 H84        -6.3350   -4.7550   -3.7330 ho        1 MOL      0.428400
    179 H85        -6.4510   -6.2580   -3.7310 ho        1 MOL      0.428400
    180 O25        -4.2820   -2.8810   -1.7370 oh        1 MOL     -0.858438
    181 H86        -4.8650   -2.4140   -2.3340 ho        1 MOL      0.428400
    182 H87        -3.7030   -2.2030   -1.3900 ho        1 MOL      0.428400
    183 O26        -2.8090   -5.5270   -3.0620 oh        1 MOL     -0.858438
    184 H88        -2.8260   -5.7040   -4.0070 ho        1 MOL      0.428400
    185 H89        -1.9710   -5.0930   -2.9180 ho        1 MOL      0.428400
    186 O27        -2.3220   -6.7640    0.1750 oh        1 MOL     -0.858438
    187 H90        -2.0030   -6.1390    0.8230 ho        1 MOL      0.428400
    188 H91        -1.5980   -7.3920    0.0660 ho        1 MOL      0.428400
    189 O28        -4.5060   -8.0250   -2.0340 oh        1 MOL     -0.858438
    190 H92        -3.5730   -8.2160   -2.1060 ho        1 MOL      0.428400
    191 H93        -4.9480   -8.7960   -2.4050 ho        1 MOL      0.428400
    192 O29        -6.4290   -7.1050    0.0980 oh        1 MOL     -0.858438
    193 H94        -6.7360   -8.0140    0.1020 ho        1 MOL      0.428400
    194 H95        -7.0290   -6.6430    0.6730 ho        1 MOL      0.428400
@<TRIPOS>BOND
     1    1    2 1   
     2    1    4 1   
     3    1    5 1   
     4    1    6 1   
     5    2    3 2   
     6    2    7 1   
     7    7    8 1   
     8    7   15 1   
     9    8    9 1   
    10    8   11 1   
    11    8   16 1   
    12    9   10 2   
    13    9   19 1   
    14   11   12 1   
    15   11   17 1   
    16   11   18 1   
    17   12   13 1   
    18   12   14 1   
    19   19   20 1   
    20   19   28 1   
    21   20   21 1   
    22   20   23 1   
    23   20   29 1   
    24   21   22 2   
    25   21   41 1   
    26   23   24 1   
    27   23   30 1   
    28   23   31 1   
    29   24   25 1   
    30   24   32 1   
    31   24   33 1   
    32   25   26 1   
    33   25   34 1   
    34   25   35 1   
    35   26   27 1   
    36   26   36 1   
    37   26   37 1   
    38   27   38 1   
    39   27   39 1   
    40   27   40 1   
    41   41   42 1   
    42   41   49 1   
    43   42   43 1   
    44   42   45 1   
    45   42   50 1   
    46   43   44 2   
    47   43   53 1   
    48   45   46 1   
    49   45   51 1   
    50   45   52 1   
    51   46   47 1   
    52   46   48 1   
    53   53   54 1   
    54   53   57 1   
    55   54   55 1   
    56   54   58 1   
    57   54   59 1   
    58   55   56 2   
    59   55   60 1   
    60   60   61 1   
    61   60   68 1   
    62   61   62 1   
    63   61   64 1   
    64   61   69 1   
    65   62   63 2   
    66   62   74 1   
    67   64   65 1   
    68   64   70 1   
    69   64   71 1   
    70   65   66 1   
    71   65   67 2   
    72   66   72 1   
    73   66   73 1   
    74   74   75 1   
    75   74   78 1   
    76   75   76 1   
    77   75   79 1   
    78   75   80 1   
    79   76   77 2   
    80   76   81 1   
    81   81   82 1   
    82   81   93 1   
    83   82   83 1   
    84   82   85 1   
    85   82   94 1   
    86   83   84 2   
    87   83  102 1   
    88   85   86 1   
    89   85   95 1   
    90   85   96 1   
    91   86   87 ar  
    92   86   88 ar  
    93   87   89 ar  
    94   87   97 1   
    95   88   90 ar  
    96   88   98 1   
    97   89   91 ar  
    98   89   99 1   
    99   90   91 ar  
   100   90  100 1   
   101   91   92 1   
   102   92  101 1   
   103  102  103 1   
   104  102  110 1   
   105  103  104 1   
   106  103  106 1   
   107  103  111 1   
   108  104  105 2   
   109  104  121 1   
   110  106  107 1   
   111  106  108 1   
   112  106  112 1   
   113  107  109 1   
   114  107  113 1   
   115  107  114 1   
   116  108  115 1   
   117  108  116 1   
   118  108  117 1   
   119  109  118 1   
   120  109  119 1   
   121  109  120 1   
   122  121  122 1   
   123  121  127 1   
   124  122  123 1   
   125  122  125 1   
   126  122  128 1   
   127  123  124 2   
   128  123  132 1   
   129  125  126 1   
   130  125  129 1   
   131  125  130 1   
   132  126  131 1   
   133  132  133 1   
   134  132  137 1   
   135  133  134 1   
   136  133  136 1   
   137  133  138 1   
   138  134  135 2   
   139  134  142 1   
   140  136  139 1   
   141  136  140 1   
   142  136  141 1   
   143  142  143 1   
   144  142  147 1   
   145  143  144 1   
   146  143  146 1   
   147  143  148 1   
   148  144  145 2   
   149  144  152 1   
   150  146  149 1   
   151  146  150 1   
   152  146  151 1   
   153  152  153 1   
   154  152  161 1   
   155  153  154 1   
   156  153  156 1   
   157  153  162 1   
   158  154  155 2   
   159  154  167 1   
   160  156  157 1   
   161  156  163 1   
   162  156  164 1   
   163  157  158 1   
   164  157  165 1   
   165  157  166 1   
   166  158  159 1   
   167  158  160 1   
   168  167  168 1   
   169  167  172 1   
   170  168  169 1   
   171  168  170 1   
   172  168  171 1   
   173  174  175 1   
   174  174  176 1   
   175  177  178 1   
   176  177  179 1   
   177  180  181 1   
   178  180  182 1   
   179  183  184 1   
   180  183  185 1   
   181  186  187 1   
   182  186  188 1   
   183  189  190 1   
   184  189  191 1   
   185  192  193 1   
   186  192  194 1   
@<TRIPOS>SUBSTRUCTURE
     1 MOL         1 TEMP              0 ****  ****    0 ROOT
