@<TRIPOS>MOLECULE
MOL
  181   177     1     0     0
SMALL
resp


@<TRIPOS>ATOM
      1 C1          3.4460   -1.9670    3.9680 c3        1 MOL     -0.344740
      2 C2          4.6800   -1.2100    3.3790 c         1 MOL      0.584211
      3 O1          4.5220   -0.2520    2.6660 o         1 MOL     -0.537316
      4 H1          2.6450   -1.2550    4.1670 hc        1 MOL      0.080259
      5 H2          3.1000   -2.7120    3.2510 hc        1 MOL      0.080259
      6 H3          3.7310   -2.4610    4.8960 hc        1 MOL      0.080259
      7 N1          5.9280   -1.6180    3.6230 n         1 MOL     -0.443226
      8 C3          7.0970   -1.0940    2.9250 c3        1 MOL      0.192884
      9 C4          6.8160   -1.0790    1.3320 c         1 MOL      0.393564
     10 O2          6.2670   -2.0520    0.7740 o         1 MOL     -0.496243
     11 C5          8.3750   -1.8740    3.2320 c3        1 MOL     -0.285954
     12 C6          9.6550   -1.2870    2.6400 c         1 MOL      0.747886
     13 O3         10.3510   -1.8440    1.7920 o         1 MOL     -0.728704
     14 O4          9.9390   -0.0950    2.9900 o         1 MOL     -0.728704
     15 H4          5.9730   -2.3610    4.2970 hn        1 MOL      0.260188
     16 H5          7.1770   -0.0890    3.3410 h1        1 MOL      0.021340
     17 H6          8.2790   -2.8510    2.7640 hc        1 MOL      0.033475
     18 H7          8.4450   -1.9400    4.3220 hc        1 MOL      0.033475
     19 N2          7.4350   -0.0990    0.5990 n         1 MOL     -0.251677
     20 C7          7.3670    0.0270   -0.7920 c3        1 MOL      0.250004
     21 C8          5.9240    0.3560   -1.2460 c         1 MOL      0.249255
     22 O5          5.1420    0.9280   -0.5030 o         1 MOL     -0.489345
     23 C9          8.3600    1.1390   -1.2350 c3        1 MOL     -0.337077
     24 H8          7.9560    0.5860    1.1230 hn        1 MOL      0.207929
     25 H9          7.5860   -0.9820   -1.1340 h1        1 MOL      0.024039
     26 H10         8.0150    2.1070   -0.8720 hc        1 MOL      0.095862
     27 H11         9.3640    1.1100   -0.8080 hc        1 MOL      0.095862
     28 H12         8.3210    1.1840   -2.3280 hc        1 MOL      0.095862
     29 N3          5.5390    0.0110   -2.4780 n         1 MOL     -0.225014
     30 C10         4.3730    0.4350   -3.1720 c3        1 MOL      0.194450
     31 C11         4.5350    1.7130   -4.0250 c         1 MOL      0.540534
     32 O6          5.6100    2.1940   -4.2070 o         1 MOL     -0.515362
     33 C12         3.6460   -0.6390   -3.9950 c3        1 MOL     -0.366005
     34 C13         3.7910   -2.0070   -3.4340 c         1 MOL      0.981430
     35 O7          4.8480   -2.6210   -3.3740 o         1 MOL     -0.834884
     36 O8          2.8070   -2.4980   -2.9180 o         1 MOL     -0.834884
     37 H13         6.1960   -0.5100   -3.0480 hn        1 MOL      0.220446
     38 H14         3.7010    0.7430   -2.3750 h1        1 MOL      0.035245
     39 H15         4.1510   -0.6910   -4.9540 hc        1 MOL      0.043984
     40 H16         2.5940   -0.3830   -4.0820 hc        1 MOL      0.043984
     41 N4          3.4640    2.2790   -4.6350 n         1 MOL     -0.471449
     42 C14         3.4360    3.6330   -5.2050 c3        1 MOL      0.024151
     43 C15         2.8550    4.7570   -4.3960 c         1 MOL      0.734171
     44 O9          3.1730    5.8250   -4.7420 o         1 MOL     -0.583556
     45 H17         2.5810    1.7750   -4.6170 hn        1 MOL      0.269144
     46 H18         2.8630    3.6400   -6.1330 h1        1 MOL      0.032691
     47 H19         4.4500    3.9940   -5.3830 h1        1 MOL      0.032691
     48 N5          2.0320    4.5290   -3.3460 n         1 MOL     -0.604917
     49 C16         1.0820    5.4870   -2.8740 c3        1 MOL      0.481704
     50 C17         0.8230    5.2920   -1.3400 c         1 MOL      0.335919
     51 O10         0.9700    4.2080   -0.7780 o         1 MOL     -0.409179
     52 C18        -0.1450    5.5690   -3.7780 c3        1 MOL     -0.390094
     53 C19        -0.9760    6.8390   -3.5050 c         1 MOL      0.691211
     54 N6         -2.2380    6.7920   -3.7970 n         1 MOL     -0.767099
     55 O11        -0.4880    7.8990   -2.9970 o         1 MOL     -0.587241
     56 H20         1.9950    3.6200   -2.8990 hn        1 MOL      0.229149
     57 H21         1.5630    6.4660   -2.9620 h1        1 MOL     -0.039049
     58 H22        -0.7770    4.6940   -3.6260 hc        1 MOL      0.095551
     59 H23         0.1840    5.6850   -4.8030 hc        1 MOL      0.095551
     60 H24        -2.6320    6.0280   -4.3230 hn        1 MOL      0.358234
     61 H25        -2.8480    7.5900   -3.6810 hn        1 MOL      0.358234
     62 N7          0.4390    6.3730   -0.6440 n         1 MOL     -0.376974
     63 C20         0.0830    6.4320    0.7370 c3        1 MOL     -0.026126
     64 C21        -1.3990    6.0500    1.0380 c         1 MOL      0.486591
     65 O12        -2.0270    5.3970    0.2350 o         1 MOL     -0.470280
     66 H26         0.6590    7.2790   -1.0350 hn        1 MOL      0.283271
     67 H27         0.3150    7.4370    1.0980 h1        1 MOL      0.067998
     68 H28         0.6940    5.7860    1.3690 h1        1 MOL      0.067998
     69 N8         -1.8550    6.3460    2.2510 n         1 MOL     -0.377570
     70 C22        -3.2720    6.2470    2.6920 c3        1 MOL     -0.188206
     71 C23        -3.5640    4.7420    3.0020 c         1 MOL      0.468708
     72 O13        -4.6970    4.3320    3.1610 o         1 MOL     -0.553856
     73 C24        -3.5280    7.2990    3.8290 c3        1 MOL      0.512761
     74 C25        -2.7610    7.1260    5.1590 c3        1 MOL     -0.375678
     75 O14        -3.2330    8.6360    3.4230 oh        1 MOL     -0.664287
     76 H29        -1.2740    6.9140    2.8550 hn        1 MOL      0.205214
     77 H30        -3.9610    6.4650    1.8800 h1        1 MOL      0.145275
     78 H31        -4.5830    7.1150    4.0150 h1        1 MOL      0.014389
     79 H32        -2.3140    8.8480    3.5810 ho        1 MOL      0.403143
     80 H33        -1.6760    7.0650    5.0510 hc        1 MOL      0.084454
     81 H34        -3.0140    7.9470    5.8300 hc        1 MOL      0.084454
     82 H35        -3.0320    6.1780    5.6200 hc        1 MOL      0.084454
     83 N9         -2.5570    3.8680    3.1060 n         1 MOL     -0.089941
     84 C26        -2.7560    2.3970    3.1620 c3        1 MOL     -0.246330
     85 C27        -1.8520    1.5810    2.2560 c         1 MOL      0.501647
     86 O15        -0.6890    1.9570    1.9260 o         1 MOL     -0.495923
     87 C28        -2.6850    1.8160    4.5810 c3        1 MOL      0.212443
     88 C29        -1.3470    2.2260    5.1970 c3        1 MOL      0.199487
     89 C30        -3.7880    2.2980    5.5890 c3        1 MOL     -0.318794
     90 C31        -0.7960    1.2980    6.3550 c3        1 MOL     -0.557558
     91 H36        -1.6330    4.2250    3.2920 hn        1 MOL      0.150150
     92 H37        -3.7360    2.2510    2.7230 h1        1 MOL      0.129378
     93 H38        -2.7050    0.7270    4.5750 hc        1 MOL     -0.004496
     94 H39        -1.4330    3.2690    5.4950 hc        1 MOL     -0.004994
     95 H40        -0.6120    2.1990    4.3980 hc        1 MOL     -0.004994
     96 H41        -3.8850    3.3800    5.5440 hc        1 MOL      0.065216
     97 H42        -4.7210    1.8220    5.2850 hc        1 MOL      0.065216
     98 H43        -3.5910    1.9850    6.6110 hc        1 MOL      0.065216
     99 H44        -0.8450    0.3030    5.9060 hc        1 MOL      0.139990
    100 H45         0.2310    1.6030    6.5470 hc        1 MOL      0.139990
    101 H46        -1.5400    1.1990    7.1450 hc        1 MOL      0.139990
    102 N10        -2.3610    0.4380    1.8250 n         1 MOL     -0.507168
    103 C32        -1.6070   -0.4920    0.9560 c3        1 MOL      0.432284
    104 C33        -2.5470   -1.1470   -0.1600 c         1 MOL      0.361341
    105 O16        -2.4990   -2.2820   -0.5390 o         1 MOL     -0.372302
    106 C34        -0.8830   -1.5950    1.8350 c3        1 MOL     -0.394932
    107 C35         0.2660   -2.2500    1.0490 c         1 MOL      0.877600
    108 O17         1.1190   -2.9700    1.5890 o         1 MOL     -0.746662
    109 O18         0.4560   -2.0290   -0.1740 o         1 MOL     -0.746662
    110 H47        -3.3080    0.1750    2.0330 hn        1 MOL      0.255810
    111 H48        -0.9030    0.0920    0.3530 h1        1 MOL      0.029016
    112 H49        -1.5930   -2.3980    2.0590 hc        1 MOL      0.080757
    113 H50        -0.4470   -1.3150    2.8000 hc        1 MOL      0.080757
    114 N11        -3.5200   -0.2660   -0.5860 n         1 MOL     -0.514376
    115 C36        -4.6430   -0.6830   -1.4460 c3        1 MOL      0.356801
    116 C37        -5.3160   -1.9200   -0.8640 c         1 MOL      0.213625
    117 O19        -5.7380   -1.9360    0.3230 o         1 MOL     -0.561937
    118 C38        -5.5550    0.4470   -1.6190 c3        1 MOL     -0.338289
    119 C39        -6.7830   -0.0410   -2.3830 ca        1 MOL      0.131086
    120 C40        -6.7520   -0.2100   -3.7720 ca        1 MOL     -0.172839
    121 C41        -7.9660   -0.3290   -1.6500 ca        1 MOL     -0.172839
    122 C42        -7.9630   -0.4790   -4.4170 ca        1 MOL     -0.145794
    123 C43        -9.1220   -0.5450   -2.3140 ca        1 MOL     -0.145794
    124 C44        -9.1500   -0.6200   -3.7200 ca        1 MOL     -0.079984
    125 H51        -3.5940    0.7020   -0.2900 hn        1 MOL      0.267461
    126 H52        -4.2250   -0.9020   -2.4320 h1        1 MOL     -0.017010
    127 H53        -5.0380    1.1550   -2.2680 hc        1 MOL      0.115508
    128 H54        -5.8660    0.8430   -0.6510 hc        1 MOL      0.115508
    129 H55        -5.8370   -0.1530   -4.3490 ha        1 MOL      0.135179
    130 H56        -8.0600   -0.2050   -0.5850 ha        1 MOL      0.135179
    131 H57        -8.0900   -0.6610   -5.4760 ha        1 MOL      0.113771
    132 H58        -9.9940   -0.4730   -1.6830 ha        1 MOL      0.113771
    133 H59       -10.0640   -0.7550   -4.2650 ha        1 MOL      0.088569
    134 N12        -5.5510   -2.9460   -1.6700 n         1 MOL      0.459089
    135 C45        -6.3350   -4.0460   -1.2110 c3        1 MOL     -0.181934
    136 C46        -5.6130   -4.9310   -0.2050 c         1 MOL      0.444347
    137 O20        -6.2150   -5.6780    0.5030 o         1 MOL     -0.526176
    138 C47        -6.7890   -4.7510   -2.4650 c3        1 MOL     -0.040249
    139 C48        -5.7330   -4.4940   -3.5100 c3        1 MOL      0.113788
    140 C49        -5.2750   -3.0880   -3.0880 c3        1 MOL     -0.295300
    141 H60        -7.1830   -3.6490   -0.6520 h1        1 MOL      0.078293
    142 H61        -7.0060   -5.8110   -2.3850 hc        1 MOL      0.019295
    143 H62        -7.6950   -4.2880   -2.8440 hc        1 MOL      0.019295
    144 H63        -4.9200   -5.2150   -3.4210 hc        1 MOL     -0.004530
    145 H64        -6.1500   -4.5870   -4.5140 hc        1 MOL     -0.004530
    146 H65        -4.2360   -2.8860   -3.3360 h1        1 MOL      0.063765
    147 H66        -6.0640   -2.5050   -3.5690 h1        1 MOL      0.063765
    148 N13        -4.3040   -4.7890   -0.0470 n         1 MOL     -0.136919
    149 C50        -3.4550   -5.5570    0.9220 c3        1 MOL     -0.402382
    150 C51        -3.8300   -5.3420    2.3660 c         1 MOL      0.646932
    151 O21        -4.0820   -6.2820    3.1260 o         1 MOL     -0.567793
    152 C52        -1.9780   -5.2930    0.7160 c3        1 MOL      0.257791
    153 C53        -1.5630   -5.6130   -0.7140 c3        1 MOL     -0.144850
    154 C54        -0.1250   -5.2900   -0.8770 c         1 MOL      0.618176
    155 O22         0.2870   -4.7250   -1.9340 o         1 MOL     -0.702089
    156 O23         0.7150   -5.5780    0.0300 o         1 MOL     -0.702089
    157 H67        -3.8450   -4.1390   -0.6630 hn        1 MOL      0.119254
    158 H68        -3.6550   -6.6050    0.6920 h1        1 MOL      0.149347
    159 H69        -1.4140   -5.8800    1.4510 hc        1 MOL     -0.037999
    160 H70        -1.7070   -4.2600    0.9280 hc        1 MOL     -0.037999
    161 H71        -2.1690   -5.0770   -1.4480 hc        1 MOL      0.025740
    162 H72        -1.7510   -6.6670   -0.9260 hc        1 MOL      0.025740
    163 N14        -3.8790   -4.1000    2.8700 n         1 MOL     -0.240563
    164 C55        -4.1500   -3.7760    4.2520 c3        1 MOL     -0.365710
    165 H73        -5.1370   -4.1490    4.5250 h1        1 MOL      0.130592
    166 H74        -3.3970   -4.2420    4.8890 h1        1 MOL      0.130592
    167 H75        -4.1210   -2.6950    4.3850 h1        1 MOL      0.130592
    168 H76        -3.4600   -3.3930    2.2800 hn        1 MOL      0.237120
    169 Ca1         2.4360   -3.7920   -0.5760 Ca        1 MOL      1.706994
    170 O24         5.3400   -3.7420   -0.8990 oh        1 MOL     -0.799684
    171 H77         5.7030   -3.2050   -0.1950 ho        1 MOL      0.393389
    172 H78         5.3720   -3.1790   -1.6700 ho        1 MOL      0.393389
    173 O25         3.3210   -1.3290    0.0500 oh        1 MOL     -0.799684
    174 H79         2.8760   -0.5030   -0.1250 ho        1 MOL      0.393389
    175 H80         4.2120   -1.0730    0.2890 ho        1 MOL      0.393389
    176 O26         3.9290   -4.9400    1.4060 oh        1 MOL     -0.799684
    177 H81         3.4890   -5.4850    2.0530 ho        1 MOL      0.393389
    178 H82         4.7760   -4.7390    1.7990 ho        1 MOL      0.393389
    179 O27         3.2810   -6.3620   -1.3740 oh        1 MOL     -0.799684
    180 H83         2.7940   -6.5910   -2.1700 ho        1 MOL      0.393389
    181 H84         4.1440   -6.7560   -1.4970 ho        1 MOL      0.393389
@<TRIPOS>BOND
     1    1    2 1   
     2    1    4 1   
     3    1    5 1   
     4    1    6 1   
     5    2    3 2   
     6    2    7 1   
     7    7    8 1   
     8    7   15 1   
     9    8    9 1   
    10    8   11 1   
    11    8   16 1   
    12    9   10 2   
    13    9   19 1   
    14   11   12 1   
    15   11   17 1   
    16   11   18 1   
    17   12   13 1   
    18   12   14 1   
    19   19   20 1   
    20   19   24 1   
    21   20   21 1   
    22   20   23 1   
    23   20   25 1   
    24   21   22 2   
    25   21   29 1   
    26   23   26 1   
    27   23   27 1   
    28   23   28 1   
    29   29   30 1   
    30   29   37 1   
    31   30   31 1   
    32   30   33 1   
    33   30   38 1   
    34   31   32 2   
    35   31   41 1   
    36   33   34 1   
    37   33   39 1   
    38   33   40 1   
    39   34   35 1   
    40   34   36 1   
    41   41   42 1   
    42   41   45 1   
    43   42   43 1   
    44   42   46 1   
    45   42   47 1   
    46   43   44 2   
    47   43   48 1   
    48   48   49 1   
    49   48   56 1   
    50   49   50 1   
    51   49   52 1   
    52   49   57 1   
    53   50   51 2   
    54   50   62 1   
    55   52   53 1   
    56   52   58 1   
    57   52   59 1   
    58   53   54 1   
    59   53   55 2   
    60   54   60 1   
    61   54   61 1   
    62   62   63 1   
    63   62   66 1   
    64   63   64 1   
    65   63   67 1   
    66   63   68 1   
    67   64   65 2   
    68   64   69 1   
    69   69   70 1   
    70   69   76 1   
    71   70   71 1   
    72   70   73 1   
    73   70   77 1   
    74   71   72 2   
    75   71   83 1   
    76   73   74 1   
    77   73   75 1   
    78   73   78 1   
    79   74   80 1   
    80   74   81 1   
    81   74   82 1   
    82   75   79 1   
    83   83   84 1   
    84   83   91 1   
    85   84   85 1   
    86   84   87 1   
    87   84   92 1   
    88   85   86 2   
    89   85  102 1   
    90   87   88 1   
    91   87   89 1   
    92   87   93 1   
    93   88   90 1   
    94   88   94 1   
    95   88   95 1   
    96   89   96 1   
    97   89   97 1   
    98   89   98 1   
    99   90   99 1   
   100   90  100 1   
   101   90  101 1   
   102  102  103 1   
   103  102  110 1   
   104  103  104 1   
   105  103  106 1   
   106  103  111 1   
   107  104  105 2   
   108  104  114 1   
   109  106  107 1   
   110  106  112 1   
   111  106  113 1   
   112  107  108 1   
   113  107  109 1   
   114  114  115 1   
   115  114  125 1   
   116  115  116 1   
   117  115  118 1   
   118  115  126 1   
   119  116  117 2   
   120  116  134 1   
   121  118  119 1   
   122  118  127 1   
   123  118  128 1   
   124  119  120 ar  
   125  119  121 ar  
   126  120  122 ar  
   127  120  129 1   
   128  121  123 ar  
   129  121  130 1   
   130  122  124 ar  
   131  122  131 1   
   132  123  124 ar  
   133  123  132 1   
   134  124  133 1   
   135  134  135 1   
   136  134  140 1   
   137  135  136 1   
   138  135  138 1   
   139  135  141 1   
   140  136  137 2   
   141  136  148 1   
   142  138  139 1   
   143  138  142 1   
   144  138  143 1   
   145  139  140 1   
   146  139  144 1   
   147  139  145 1   
   148  140  146 1   
   149  140  147 1   
   150  148  149 1   
   151  148  157 1   
   152  149  150 1   
   153  149  152 1   
   154  149  158 1   
   155  150  151 2   
   156  150  163 1   
   157  152  153 1   
   158  152  159 1   
   159  152  160 1   
   160  153  154 1   
   161  153  161 1   
   162  153  162 1   
   163  154  155 1   
   164  154  156 1   
   165  163  164 1   
   166  163  168 1   
   167  164  165 1   
   168  164  166 1   
   169  164  167 1   
   170  170  171 1   
   171  170  172 1   
   172  173  174 1   
   173  173  175 1   
   174  176  177 1   
   175  176  178 1   
   176  179  180 1   
   177  179  181 1   
@<TRIPOS>SUBSTRUCTURE
     1 MOL         1 TEMP              0 ****  ****    0 ROOT
