@<TRIPOS>MOLECULE
MOL
  191   184     1     0     0
SMALL
resp


@<TRIPOS>ATOM
      1 C1         15.1390    3.2130   -0.3120 c3        1 MOL     -0.320582
      2 C2         13.9900    2.5420    0.4460 c         1 MOL      0.665740
      3 O1         13.9300    2.6650    1.6850 o         1 MOL     -0.554889
      4 H1         15.3710    4.1700    0.1540 hc        1 MOL      0.082901
      5 H2         16.0200    2.5720   -0.2800 hc        1 MOL      0.082901
      6 H3         14.8450    3.3770   -1.3480 hc        1 MOL      0.082901
      7 N1         13.1810    1.6880   -0.2380 n         1 MOL     -0.663897
      8 C3         12.2360    0.7610    0.3670 c3        1 MOL      0.268334
      9 C4         10.9470    0.4210   -0.3530 c         1 MOL      0.532463
     10 O2         10.9570    0.3700   -1.6040 o         1 MOL     -0.555588
     11 C5         13.0230   -0.5050    0.6810 c3        1 MOL     -0.293489
     12 C6         12.2100   -1.6110    1.3800 c         1 MOL      0.744156
     13 O3         12.1150   -2.7190    0.8160 o         1 MOL     -0.691178
     14 O4         11.6820   -1.4100    2.5030 o         1 MOL     -0.691178
     15 H4         13.3840    1.5740   -1.2240 hn        1 MOL      0.333271
     16 H5         11.9610    1.1060    1.3570 h1        1 MOL      0.027410
     17 H6         13.9060   -0.2560    1.2570 hc        1 MOL      0.079640
     18 H7         13.4470   -0.8800   -0.2470 hc        1 MOL      0.079640
     19 N2          9.8460    0.0740    0.3350 n         1 MOL     -0.645622
     20 C7          8.5260   -0.3640   -0.1780 c3        1 MOL      0.298309
     21 C8          7.3490   -0.2720    0.8010 c         1 MOL      0.508323
     22 O5          7.4610   -0.6310    1.9450 o         1 MOL     -0.448833
     23 C9          8.5900   -1.8400   -0.6460 c3        1 MOL     -0.012988
     24 C10         7.4750   -2.1990   -1.6430 c3        1 MOL     -0.213283
     25 C11         7.5960   -3.5990   -2.2060 c3        1 MOL      0.337169
     26 C12         6.7340   -3.7860   -3.4270 c3        1 MOL     -0.045094
     27 N3          6.6020   -5.2530   -3.6880 n4        1 MOL     -0.282031
     28 H8          9.9910   -0.1240    1.3120 hn        1 MOL      0.305762
     29 H9          8.2080    0.2040   -1.0570 h1        1 MOL      0.000563
     30 H10         8.5430   -2.4820    0.2290 hc        1 MOL      0.050674
     31 H11         9.5460   -2.0380   -1.1360 hc        1 MOL      0.050674
     32 H12         7.6730   -1.5480   -2.4890 hc        1 MOL      0.025820
     33 H13         6.5340   -2.1150   -1.1020 hc        1 MOL      0.025820
     34 H14         7.2650   -4.2750   -1.4130 hc        1 MOL     -0.044470
     35 H15         8.6330   -3.8360   -2.4460 hc        1 MOL     -0.044470
     36 H16         7.3260   -3.3220   -4.2160 hx        1 MOL      0.083233
     37 H17         5.8030   -3.2760   -3.1790 hx        1 MOL      0.083233
     38 H18         6.0280   -5.4050   -4.5040 hn        1 MOL      0.275891
     39 H19         7.4690   -5.7470   -3.8510 hn        1 MOL      0.275891
     40 H20         6.0870   -5.7270   -2.9670 hn        1 MOL      0.275891
     41 N4          6.1680    0.1610    0.3070 n         1 MOL     -0.471065
     42 C13         5.0280    0.5050    1.1250 c3        1 MOL     -0.043404
     43 C14         4.5680   -0.6630    1.9610 c         1 MOL      0.471910
     44 O6          4.7410   -1.8440    1.5370 o         1 MOL     -0.400386
     45 C15         3.9160    1.0270    0.1340 c3        1 MOL     -0.163634
     46 C16         2.6780    1.3790    0.9060 c         1 MOL      0.546045
     47 O7          1.8970    0.4790    1.2790 o         1 MOL     -0.685633
     48 O8          2.2560    2.5290    1.2280 o         1 MOL     -0.685633
     49 H21         6.1590    0.4330   -0.6720 hn        1 MOL      0.256800
     50 H22         5.2400    1.3450    1.7940 h1        1 MOL      0.093583
     51 H23         3.7180    0.2820   -0.6280 hc        1 MOL      0.099413
     52 H24         4.3060    1.8500   -0.4600 hc        1 MOL      0.099413
     53 N5          3.9670   -0.4230    3.1650 n         1 MOL     -0.331157
     54 C17         3.4720   -1.3840    4.0980 c3        1 MOL     -0.164797
     55 C18         2.5580   -2.4180    3.4700 c         1 MOL      0.386751
     56 O9          2.6810   -3.6290    3.8260 o         1 MOL     -0.502314
     57 H25         3.9480    0.5360    3.4800 hn        1 MOL      0.281549
     58 H26         2.9130   -0.7630    4.8010 h1        1 MOL      0.118770
     59 H27         4.2710   -1.9080    4.6090 h1        1 MOL      0.118770
     60 N6          1.6710   -1.9830    2.5510 n         1 MOL     -0.087003
     61 C19         0.8560   -2.8840    1.6570 c3        1 MOL      0.011083
     62 C20         0.8310   -2.4340    0.2040 c         1 MOL      0.381902
     63 O10        -0.2490   -2.1360   -0.3260 o         1 MOL     -0.489491
     64 C21        -0.4950   -3.2380    2.3280 c3        1 MOL     -0.212368
     65 C22        -1.5030   -3.9540    1.4350 c         1 MOL      0.737496
     66 N7         -2.6830   -3.4620    1.3740 n         1 MOL     -0.775984
     67 O11        -1.1620   -4.9440    0.8150 o         1 MOL     -0.572482
     68 H28         1.7100   -0.9840    2.3720 hn        1 MOL      0.223195
     69 H29         1.4840   -3.7800    1.6550 h1        1 MOL      0.074743
     70 H30        -0.9250   -2.2830    2.6150 hc        1 MOL      0.034306
     71 H31        -0.2370   -3.7400    3.2580 hc        1 MOL      0.034306
     72 H32        -2.8200   -2.5280    1.7210 hn        1 MOL      0.351619
     73 H33        -3.4230   -4.0240    0.9650 hn        1 MOL      0.351619
     74 N8          1.9790   -2.1550   -0.3780 n         1 MOL     -0.087509
     75 C23         2.2030   -2.0350   -1.8190 c3        1 MOL     -0.233444
     76 C24         1.6850   -0.7720   -2.5560 c         1 MOL      0.432200
     77 O12         1.8070   -0.7440   -3.7720 o         1 MOL     -0.561089
     78 H34         2.8360   -2.2920    0.1330 hn        1 MOL      0.110960
     79 H35         1.8500   -2.9010   -2.3740 h1        1 MOL      0.125637
     80 H36         3.2860   -2.0520   -1.9730 h1        1 MOL      0.125637
     81 N9          1.1510    0.2510   -1.9130 n         1 MOL     -0.142199
     82 C25         0.4210    1.3510   -2.4830 c3        1 MOL      0.125835
     83 C26        -0.8290    1.5250   -1.6390 c         1 MOL      0.345031
     84 O13        -0.7600    1.3630   -0.4070 o         1 MOL     -0.535471
     85 C27         1.2830    2.6230   -2.5930 c3        1 MOL     -0.172845
     86 C28         0.4490    3.9080   -2.4370 ca        1 MOL     -0.036094
     87 C29        -0.2540    4.3670   -3.5540 ca        1 MOL     -0.101734
     88 C30         0.4830    4.6140   -1.2360 ca        1 MOL     -0.101734
     89 C31        -1.0420    5.5580   -3.4230 ca        1 MOL     -0.284631
     90 C32        -0.3130    5.7370   -1.0710 ca        1 MOL     -0.284631
     91 C33        -0.9740    6.2050   -2.2230 ca        1 MOL      0.363576
     92 O14        -1.6280    7.3240   -2.1750 oh        1 MOL     -0.450191
     93 H37         1.0890    0.0260   -0.9350 hn        1 MOL      0.067135
     94 H38         0.1080    1.0940   -3.4950 h1        1 MOL      0.056695
     95 H39         1.6270    2.5590   -3.6210 hc        1 MOL      0.086712
     96 H40         2.1490    2.5420   -1.9310 hc        1 MOL      0.086712
     97 H41        -0.0440    3.8340   -4.4770 ha        1 MOL      0.115525
     98 H42         1.2010    4.2590   -0.5130 ha        1 MOL      0.115525
     99 H43        -1.5520    5.9960   -4.2710 ha        1 MOL      0.159312
    100 H44        -0.2730    6.2270   -0.1120 ha        1 MOL      0.159312
    101 H45        -1.6770    7.6860   -1.2920 ho        1 MOL      0.354032
    102 N10        -1.9300    1.7570   -2.3950 n         1 MOL     -0.013354
    103 C34        -3.3020    1.6060   -1.8800 c3        1 MOL     -0.335519
    104 C35        -3.7820    0.1990   -1.5170 c         1 MOL      0.494642
    105 O15        -4.5320   -0.0000   -0.6010 o         1 MOL     -0.499205
    106 C36        -4.3250    2.2830   -2.8850 c3        1 MOL      0.013519
    107 C37        -4.1240    3.7740   -3.1720 c3        1 MOL     -0.288586
    108 C38        -5.8250    2.0930   -2.5080 c3        1 MOL     -0.250578
    109 C39        -4.2320    4.5850   -1.9140 c3        1 MOL     -0.031724
    110 H46        -1.8430    1.8930   -3.3960 hn        1 MOL      0.177609
    111 H47        -3.3870    2.1130   -0.9170 h1        1 MOL      0.196105
    112 H48        -4.3610    1.7710   -3.8480 hc        1 MOL      0.051023
    113 H49        -4.9340    4.1210   -3.8080 hc        1 MOL      0.119846
    114 H50        -3.1900    3.9890   -3.7070 hc        1 MOL      0.119846
    115 H51        -5.9820    2.5150   -1.5110 hc        1 MOL      0.092479
    116 H52        -6.4450    2.4220   -3.3370 hc        1 MOL      0.092479
    117 H53        -5.9490    1.0200   -2.6000 hc        1 MOL      0.092479
    118 H54        -5.2650    4.5470   -1.5750 hc        1 MOL      0.022651
    119 H55        -3.6000    4.2120   -1.1080 hc        1 MOL      0.022651
    120 H56        -3.9540    5.6350   -2.0530 hc        1 MOL      0.022651
    121 N11        -3.2760   -0.7410   -2.2980 n         1 MOL     -0.151546
    122 C40        -3.3080   -2.2120   -2.0950 c3        1 MOL     -0.177341
    123 C41        -4.6580   -2.8320   -2.4460 c         1 MOL      0.525039
    124 O16        -5.0470   -3.8850   -1.9530 o         1 MOL     -0.513851
    125 C42        -2.1720   -2.8100   -2.8990 c3        1 MOL      0.101724
    126 O17        -2.2470   -2.3650   -4.2540 oh        1 MOL     -0.586321
    127 H57        -2.6890   -0.4490   -3.0650 hn        1 MOL      0.173171
    128 H58        -3.1660   -2.4680   -1.0410 h1        1 MOL      0.118181
    129 H59        -2.1370   -3.8910   -2.8400 h1        1 MOL      0.097839
    130 H60        -1.2480   -2.3820   -2.5040 h1        1 MOL      0.097839
    131 H61        -2.6480   -3.0950   -4.7460 ho        1 MOL      0.393478
    132 N12        -5.4180   -2.2300   -3.3780 n         1 MOL     -0.374454
    133 C43        -6.8010   -2.5140   -3.7030 c3        1 MOL      0.284209
    134 C44        -7.6890   -2.5560   -2.4270 c         1 MOL      0.492554
    135 O18        -8.8420   -3.0710   -2.6500 o         1 MOL     -0.534216
    136 C45        -6.6980   -3.6900   -4.6420 c3        1 MOL     -0.485809
    137 H62        -4.9310   -1.5600   -3.9490 hn        1 MOL      0.214220
    138 H63        -7.2400   -1.6920   -4.2690 h1        1 MOL      0.040087
    139 H64        -6.0830   -3.3550   -5.4790 hc        1 MOL      0.137181
    140 H65        -6.3830   -4.5990   -4.1280 hc        1 MOL      0.137181
    141 H66        -7.7080   -3.8520   -5.0100 hc        1 MOL      0.137181
    142 N13        -7.3410   -1.9500   -1.2190 n         1 MOL     -0.592957
    143 C46        -8.0670   -2.2240    0.0240 c3        1 MOL      0.248178
    144 C47        -8.8960   -1.0080    0.5530 c         1 MOL      0.531659
    145 O19        -8.4280    0.1440    0.6490 o         1 MOL     -0.507086
    146 C48        -6.9620   -2.8190    0.9540 c3        1 MOL     -0.147948
    147 H67        -6.3930   -1.5820   -1.1570 hn        1 MOL      0.256584
    148 H68        -8.7910   -3.0150   -0.1480 h1        1 MOL      0.047825
    149 H69        -7.4220   -3.4460    1.7100 hc        1 MOL      0.046234
    150 H70        -6.2890   -3.4600    0.3690 hc        1 MOL      0.046234
    151 H71        -6.3680   -1.9920    1.3310 hc        1 MOL      0.046234
    152 N14       -10.1670   -1.1460    0.8940 n         1 MOL     -0.536618
    153 C49       -11.1370   -0.1910    1.5510 c3        1 MOL      0.033322
    154 C50       -11.4140    1.0660    0.7210 c         1 MOL      0.417938
    155 O20       -11.5060    2.1930    1.2440 o         1 MOL     -0.489570
    156 C51       -10.7270    0.1860    2.9930 c3        1 MOL      0.292283
    157 C52       -10.6630   -0.8850    4.0090 c3        1 MOL     -0.278344
    158 C53       -10.6390   -0.2510    5.4190 c         1 MOL      0.695361
    159 O21        -9.5360    0.0010    5.9840 o         1 MOL     -0.629843
    160 O22       -11.7210   -0.0500    6.0750 o         1 MOL     -0.629843
    161 H72       -10.6240   -1.9530    0.4970 hn        1 MOL      0.271780
    162 H73       -12.0560   -0.7600    1.5010 h1        1 MOL      0.067904
    163 H74       -11.4410    0.9400    3.3450 hc        1 MOL     -0.031135
    164 H75        -9.7700    0.7070    3.0870 hc        1 MOL     -0.031135
    165 H76        -9.7100   -1.3960    3.8760 hc        1 MOL      0.017771
    166 H77       -11.5280   -1.5220    3.8170 hc        1 MOL      0.017771
    167 N15       -11.5260    0.8660   -0.5760 n         1 MOL     -0.328623
    168 C54       -11.4650    2.0320   -1.5990 c3        1 MOL     -0.224451
    169 H78       -10.7310    2.7660   -1.2680 h1        1 MOL      0.115911
    170 H79       -11.1760    1.6440   -2.5750 h1        1 MOL      0.115911
    171 H80       -12.4450    2.5050   -1.6710 h1        1 MOL      0.115911
    172 H81       -11.5050   -0.0470   -1.0040 hn        1 MOL      0.270132
    173 Ca1        -0.1570    1.9240    2.0970 Ca        1 MOL      1.832587
    174 O23        -2.1200    3.3670    1.0430 oh        1 MOL     -0.835726
    175 H82        -3.0430    3.1640    1.1550 ho        1 MOL      0.394485
    176 H83        -2.0470    4.2920    1.2680 ho        1 MOL      0.394485
    177 O24        -1.8700    2.4610    4.1460 oh        1 MOL     -0.835726
    178 H84        -2.7530    2.1440    3.9340 ho        1 MOL      0.394485
    179 H85        -1.9220    2.6930    5.0770 ho        1 MOL      0.394485
    180 O25         0.2600    4.5410    2.1900 oh        1 MOL     -0.835726
    181 H86        -0.0760    5.3560    2.5720 ho        1 MOL      0.394485
    182 H87         1.1440    4.7660    1.9060 ho        1 MOL      0.394485
    183 O26        -2.4120    0.6530    2.0290 oh        1 MOL     -0.835726
    184 H88        -2.7640   -0.0910    2.5160 ho        1 MOL      0.394485
    185 H89        -3.0850    0.8570    1.3820 ho        1 MOL      0.394485
    186 O27         1.7640    2.2740    3.9830 oh        1 MOL     -0.835726
    187 H90         1.7490    2.3550    4.9370 ho        1 MOL      0.394485
    188 H91         2.5680    2.7120    3.7170 ho        1 MOL      0.394485
    189 O28        -0.4880   -0.1310    4.0220 oh        1 MOL     -0.835726
    190 H92        -1.4170   -0.0830    4.2400 ho        1 MOL      0.394485
    191 H93        -0.0870   -0.5790    4.7700 ho        1 MOL      0.394485
@<TRIPOS>BOND
     1    1    2 1   
     2    1    4 1   
     3    1    5 1   
     4    1    6 1   
     5    2    3 2   
     6    2    7 1   
     7    7    8 1   
     8    7   15 1   
     9    8    9 1   
    10    8   11 1   
    11    8   16 1   
    12    9   10 2   
    13    9   19 1   
    14   11   12 1   
    15   11   17 1   
    16   11   18 1   
    17   12   13 1   
    18   12   14 1   
    19   19   20 1   
    20   19   28 1   
    21   20   21 1   
    22   20   23 1   
    23   20   29 1   
    24   21   22 2   
    25   21   41 1   
    26   23   24 1   
    27   23   30 1   
    28   23   31 1   
    29   24   25 1   
    30   24   32 1   
    31   24   33 1   
    32   25   26 1   
    33   25   34 1   
    34   25   35 1   
    35   26   27 1   
    36   26   36 1   
    37   26   37 1   
    38   27   38 1   
    39   27   39 1   
    40   27   40 1   
    41   41   42 1   
    42   41   49 1   
    43   42   43 1   
    44   42   45 1   
    45   42   50 1   
    46   43   44 2   
    47   43   53 1   
    48   45   46 1   
    49   45   51 1   
    50   45   52 1   
    51   46   47 1   
    52   46   48 1   
    53   53   54 1   
    54   53   57 1   
    55   54   55 1   
    56   54   58 1   
    57   54   59 1   
    58   55   56 2   
    59   55   60 1   
    60   60   61 1   
    61   60   68 1   
    62   61   62 1   
    63   61   64 1   
    64   61   69 1   
    65   62   63 2   
    66   62   74 1   
    67   64   65 1   
    68   64   70 1   
    69   64   71 1   
    70   65   66 1   
    71   65   67 2   
    72   66   72 1   
    73   66   73 1   
    74   74   75 1   
    75   74   78 1   
    76   75   76 1   
    77   75   79 1   
    78   75   80 1   
    79   76   77 2   
    80   76   81 1   
    81   81   82 1   
    82   81   93 1   
    83   82   83 1   
    84   82   85 1   
    85   82   94 1   
    86   83   84 2   
    87   83  102 1   
    88   85   86 1   
    89   85   95 1   
    90   85   96 1   
    91   86   87 ar  
    92   86   88 ar  
    93   87   89 ar  
    94   87   97 1   
    95   88   90 ar  
    96   88   98 1   
    97   89   91 ar  
    98   89   99 1   
    99   90   91 ar  
   100   90  100 1   
   101   91   92 1   
   102   92  101 1   
   103  102  103 1   
   104  102  110 1   
   105  103  104 1   
   106  103  106 1   
   107  103  111 1   
   108  104  105 2   
   109  104  121 1   
   110  106  107 1   
   111  106  108 1   
   112  106  112 1   
   113  107  109 1   
   114  107  113 1   
   115  107  114 1   
   116  108  115 1   
   117  108  116 1   
   118  108  117 1   
   119  109  118 1   
   120  109  119 1   
   121  109  120 1   
   122  121  122 1   
   123  121  127 1   
   124  122  123 1   
   125  122  125 1   
   126  122  128 1   
   127  123  124 2   
   128  123  132 1   
   129  125  126 1   
   130  125  129 1   
   131  125  130 1   
   132  126  131 1   
   133  132  133 1   
   134  132  137 1   
   135  133  134 1   
   136  133  136 1   
   137  133  138 1   
   138  134  135 2   
   139  134  142 1   
   140  136  139 1   
   141  136  140 1   
   142  136  141 1   
   143  142  143 1   
   144  142  147 1   
   145  143  144 1   
   146  143  146 1   
   147  143  148 1   
   148  144  145 2   
   149  144  152 1   
   150  146  149 1   
   151  146  150 1   
   152  146  151 1   
   153  152  153 1   
   154  152  161 1   
   155  153  154 1   
   156  153  156 1   
   157  153  162 1   
   158  154  155 2   
   159  154  167 1   
   160  156  157 1   
   161  156  163 1   
   162  156  164 1   
   163  157  158 1   
   164  157  165 1   
   165  157  166 1   
   166  158  159 1   
   167  158  160 1   
   168  167  168 1   
   169  167  172 1   
   170  168  169 1   
   171  168  170 1   
   172  168  171 1   
   173  174  175 1   
   174  174  176 1   
   175  177  178 1   
   176  177  179 1   
   177  180  181 1   
   178  180  182 1   
   179  183  184 1   
   180  183  185 1   
   181  186  187 1   
   182  186  188 1   
   183  189  190 1   
   184  189  191 1   
@<TRIPOS>SUBSTRUCTURE
     1 MOL         1 TEMP              0 ****  ****    0 ROOT
