@<TRIPOS>MOLECULE
MOL
  179   176     1     0     0
SMALL
resp


@<TRIPOS>ATOM
      1 C1          1.6000   -4.8100    5.9710 c3        1 MOL     -0.247612
      2 C2          1.5300   -4.2940    4.5060 c         1 MOL      0.705928
      3 O1          0.5150   -4.4640    3.8220 o         1 MOL     -0.609405
      4 H1          2.5600   -5.2980    6.1390 hc        1 MOL      0.073002
      5 H2          1.4930   -3.9700    6.6580 hc        1 MOL      0.073002
      6 H3          0.7950   -5.5250    6.1440 hc        1 MOL      0.073002
      7 N1          2.6310   -3.7010    4.0540 n         1 MOL     -0.572909
      8 C3          2.7630   -3.1730    2.7230 c3        1 MOL      0.166807
      9 C4          3.1010   -4.2280    1.7130 c         1 MOL      0.490688
     10 O2          4.2390   -4.7710    1.7060 o         1 MOL     -0.542746
     11 C5          3.8590   -2.0470    2.7600 c3        1 MOL     -0.036547
     12 C6          3.8940   -1.1400    1.4840 c         1 MOL      0.507995
     13 O3          4.2470    0.0260    1.4890 o         1 MOL     -0.638578
     14 O4          3.5180   -1.6600    0.3980 o         1 MOL     -0.638578
     15 H4          3.4090   -3.7130    4.7090 hn        1 MOL      0.321481
     16 H5          1.8260   -2.6670    2.4820 h1        1 MOL     -0.199562
     17 H6          4.7930   -2.5910    2.9180 hc        1 MOL      0.042918
     18 H7          3.8200   -1.4570    3.6780 hc        1 MOL      0.042918
     19 N2          2.1960   -4.3800    0.7240 n         1 MOL     -0.169970
     20 C7          2.2210   -5.3600   -0.3620 c3        1 MOL      0.017339
     21 C8          3.4720   -5.2510   -1.3120 c         1 MOL      0.468380
     22 O5          3.7990   -6.2670   -1.9520 o         1 MOL     -0.541724
     23 C9          0.9190   -5.2810   -1.2040 c3        1 MOL     -0.128352
     24 C10         0.6500   -3.9500   -1.9170 c3        1 MOL      0.651295
     25 C11        -0.7670   -3.8860   -2.6050 c3        1 MOL     -0.103858
     26 C12        -1.0570   -2.6970   -3.5120 c3        1 MOL      0.096999
     27 N3         -2.4850   -2.6710   -3.9150 n4        1 MOL     -0.312167
     28 H8          1.3050   -4.0340    1.0550 hn        1 MOL      0.149949
     29 H9          2.2800   -6.3690    0.0480 h1        1 MOL      0.075898
     30 H10         0.1720   -5.5890   -0.4750 hc        1 MOL      0.009212
     31 H11         0.9950   -6.0730   -1.9460 hc        1 MOL      0.009212
     32 H12         1.4720   -3.7120   -2.5930 hc        1 MOL     -0.203758
     33 H13         0.6230   -3.1550   -1.1600 hc        1 MOL     -0.203758
     34 H14        -1.5100   -3.9140   -1.8060 hc        1 MOL     -0.009633
     35 H15        -0.7920   -4.7590   -3.2550 hc        1 MOL     -0.009633
     36 H16        -0.4930   -2.7820   -4.4470 hx        1 MOL      0.040758
     37 H17        -0.8280   -1.7870   -2.9590 hx        1 MOL      0.040758
     38 H18        -3.0890   -2.7220   -3.1060 hn        1 MOL      0.296271
     39 H19        -2.6820   -1.8070   -4.4080 hn        1 MOL      0.296271
     40 H20        -2.7760   -3.5200   -4.3700 hn        1 MOL      0.296271
     41 N4          4.1510   -4.0770   -1.3200 n         1 MOL     -0.241709
     42 C13         5.3060   -3.8440   -2.1590 c3        1 MOL      0.194082
     43 C14         6.4700   -3.1050   -1.4200 c         1 MOL      0.272051
     44 O6          7.6140   -3.0870   -1.8680 o         1 MOL     -0.477602
     45 C15         4.9510   -2.9410   -3.3060 c3        1 MOL     -0.390960
     46 C16         4.1990   -1.6910   -2.8670 c         1 MOL      0.771397
     47 O7          2.9320   -1.7000   -2.8970 o         1 MOL     -0.743692
     48 O8          4.7310   -0.7150   -2.2850 o         1 MOL     -0.743692
     49 H21         3.8110   -3.3370   -0.7280 hn        1 MOL      0.098877
     50 H22         5.8030   -4.7340   -2.5610 h1        1 MOL      0.089105
     51 H23         4.2240   -3.4880   -3.9080 hc        1 MOL      0.119053
     52 H24         5.7870   -2.6790   -3.9500 hc        1 MOL      0.119053
     53 N5          6.1230   -2.4660   -0.2530 n         1 MOL      0.077700
     54 C17         7.1160   -1.9960    0.7190 c3        1 MOL     -0.197062
     55 C18         7.6670   -0.5920    0.5390 c         1 MOL      0.601342
     56 O9          8.6080   -0.1940    1.2020 o         1 MOL     -0.566057
     57 H25         5.1410   -2.4500   -0.0250 hn        1 MOL     -0.043016
     58 H26         7.9960   -2.6380    0.8000 h1        1 MOL      0.100370
     59 H27         6.7280   -1.9470    1.7390 h1        1 MOL      0.100370
     60 N6          6.9700    0.2580   -0.2310 n         1 MOL     -0.288478
     61 C19         7.2270    1.7150   -0.5720 c3        1 MOL      0.017738
     62 C20         5.8780    2.3930   -0.8530 c         1 MOL      0.535924
     63 O10         4.7830    1.7520   -0.9650 o         1 MOL     -0.432190
     64 C21         8.1060    1.7630   -1.8080 c3        1 MOL     -0.378995
     65 C22         9.5730    1.4440   -1.5440 c         1 MOL      0.686755
     66 N7         10.3190    2.2280   -0.8130 n         1 MOL     -0.822125
     67 O11        10.0480    0.3340   -1.9320 o         1 MOL     -0.526291
     68 H28         6.1340   -0.1140   -0.6520 hn        1 MOL      0.240352
     69 H29         7.7570    2.1160    0.2860 h1        1 MOL      0.049356
     70 H30         7.9760    2.7390   -2.2830 hc        1 MOL      0.108092
     71 H31         7.6770    1.0010   -2.4510 hc        1 MOL      0.108092
     72 H32         9.8850    2.8820   -0.1640 hn        1 MOL      0.383561
     73 H33        11.2010    1.8330   -0.5440 hn        1 MOL      0.383561
     74 N8          5.8760    3.6980   -1.1090 n         1 MOL     -0.399816
     75 C23         4.6790    4.5490   -1.3470 c3        1 MOL     -0.155076
     76 C24         3.7730    4.6910   -0.1160 c         1 MOL      0.549153
     77 O12         4.2330    4.9100    0.9970 o         1 MOL     -0.519762
     78 H34         6.7010    4.2770   -1.0320 hn        1 MOL      0.314667
     79 H35         4.0300    4.1870   -2.1480 h1        1 MOL      0.092061
     80 H36         5.0240    5.5590   -1.5720 h1        1 MOL      0.092061
     81 N9          2.4940    4.6390   -0.3340 n         1 MOL     -0.407746
     82 C25         1.3800    4.4590    0.7390 c3        1 MOL      0.216845
     83 C26         1.1880    3.0100    0.9700 c         1 MOL      0.736908
     84 O13         1.6980    2.2420    0.2050 o         1 MOL     -0.716005
     85 C27         0.1910    5.1850    0.1580 c3        1 MOL     -0.026009
     86 C28         0.2960    6.6810    0.1150 ca        1 MOL      0.063539
     87 C29         0.1870    7.3550    1.3240 ca        1 MOL     -0.176874
     88 C30         0.6230    7.3880   -1.0860 ca        1 MOL     -0.176874
     89 C31         0.3350    8.7110    1.3930 ca        1 MOL     -0.211449
     90 C32         0.7690    8.7290   -1.0010 ca        1 MOL     -0.211449
     91 C33         0.6350    9.4720    0.2420 ca        1 MOL      0.285195
     92 O14         1.0010   10.7500    0.3720 oh        1 MOL     -0.440135
     93 H37         2.2150    4.3170   -1.2570 hn        1 MOL      0.200872
     94 H38         1.5320    5.0290    1.6600 h1        1 MOL      0.019061
     95 H39        -0.6520    5.0230    0.8240 hc        1 MOL     -0.004077
     96 H40        -0.2100    4.7550   -0.7600 hc        1 MOL     -0.004077
     97 H41        -0.0190    6.7440    2.1920 ha        1 MOL      0.129435
     98 H42         0.7570    6.8980   -2.0410 ha        1 MOL      0.129435
     99 H43         0.2770    9.1740    2.3610 ha        1 MOL      0.141967
    100 H44         1.1070    9.3590   -1.8030 ha        1 MOL      0.141967
    101 H45         0.7160   11.0720    1.2260 ho        1 MOL      0.365620
    102 N10         0.4210    2.6050    1.9600 n         1 MOL     -0.850254
    103 C34         0.2380    1.2150    2.5220 c3        1 MOL      0.470567
    104 C35        -0.0600    0.1060    1.5000 c         1 MOL      0.565866
    105 O15         0.7990   -0.2320    0.7000 o         1 MOL     -0.477540
    106 C36         1.3690    0.8320    3.4920 c3        1 MOL      0.359550
    107 C37         0.9640   -0.4320    4.2980 c3        1 MOL     -0.091229
    108 C38         1.8300    2.0150    4.2900 c3        1 MOL     -0.383524
    109 C39        -0.3190   -0.3370    5.1510 c3        1 MOL     -0.371234
    110 H46         0.0230    3.3480    2.5240 hn        1 MOL      0.360398
    111 H47        -0.7230    1.2500    3.0170 h1        1 MOL     -0.102776
    112 H48         2.2050    0.4910    2.8890 hc        1 MOL     -0.047289
    113 H49         1.8530   -0.6880    4.8630 hc        1 MOL      0.082057
    114 H50         0.7580   -1.2340    3.5900 hc        1 MOL      0.082057
    115 H51         2.5200    1.6800    5.0690 hc        1 MOL      0.083896
    116 H52         2.3900    2.6630    3.6110 hc        1 MOL      0.083896
    117 H53         0.9830    2.5270    4.7520 hc        1 MOL      0.083896
    118 H54        -1.1630   -0.5310    4.4940 hc        1 MOL      0.092924
    119 H55        -0.3900   -1.1040    5.9110 hc        1 MOL      0.092924
    120 H56        -0.3050    0.6390    5.6510 hc        1 MOL      0.092924
    121 N11        -1.2940   -0.4360    1.5020 n         1 MOL     -0.763578
    122 C40        -1.7090   -1.3780    0.4050 c3        1 MOL      0.245803
    123 C41        -3.0980   -1.3500   -0.1620 c         1 MOL      0.332458
    124 O16        -3.3980   -2.0080   -1.1550 o         1 MOL     -0.504159
    125 C42        -1.7030   -2.7420    1.1020 c3        1 MOL     -0.180331
    126 O17        -0.4500   -3.2940    1.4590 oh        1 MOL     -0.381817
    127 H57        -1.9720   -0.1340    2.1920 hn        1 MOL      0.384115
    128 H58        -0.9880   -1.3300   -0.4060 h1        1 MOL      0.187004
    129 H59        -2.1890   -3.4730    0.4580 h1        1 MOL      0.125686
    130 H60        -2.3250   -2.6260    1.9860 h1        1 MOL      0.125686
    131 H61        -0.4930   -3.7860    2.2860 ho        1 MOL      0.374280
    132 N12        -3.9920   -0.6240    0.5190 n         1 MOL     -0.453125
    133 C43        -5.4300   -0.4900    0.2010 c3        1 MOL      0.183015
    134 C44        -5.6940    0.0910   -1.1830 c         1 MOL      0.570680
    135 O18        -4.9070    0.7500   -1.8390 o         1 MOL     -0.558678
    136 C45        -6.1390    0.1490    1.3790 c3        1 MOL     -0.290078
    137 H62        -3.6840   -0.0680    1.3040 hn        1 MOL      0.288561
    138 H63        -5.9390   -1.4410    0.3590 h1        1 MOL      0.104788
    139 H64        -5.8580    1.2030    1.3030 hc        1 MOL      0.089389
    140 H65        -7.2080    0.0530    1.2340 hc        1 MOL      0.089389
    141 H66        -5.6410   -0.2800    2.2580 hc        1 MOL      0.089389
    142 N13        -6.8350   -0.1500   -1.8580 n         1 MOL     -0.587633
    143 C46        -8.2310   -0.5640   -1.4060 c3        1 MOL      0.204609
    144 C47        -9.3260   -0.1630   -2.3620 c         1 MOL      0.470876
    145 O19        -9.0000    0.0470   -3.5300 o         1 MOL     -0.532136
    146 C48        -8.1920   -2.0820   -1.3250 c3        1 MOL     -0.294114
    147 H67        -6.8830    0.2000   -2.8040 hn        1 MOL      0.336361
    148 H68        -8.4790   -0.2030   -0.4030 h1        1 MOL      0.033519
    149 H69        -9.1750   -2.4300   -1.0460 hc        1 MOL      0.085587
    150 H70        -7.8940   -2.4120   -2.3240 hc        1 MOL      0.085587
    151 H71        -7.4750   -2.5880   -0.6790 hc        1 MOL      0.085587
    152 N14       -10.5880    0.0480   -1.9080 n         1 MOL     -0.401130
    153 C49       -11.1760   -0.2650   -0.6430 c3        1 MOL     -0.034975
    154 C50       -10.8070    0.6470    0.5130 c         1 MOL      0.340863
    155 O20       -10.5550    0.1470    1.6490 o         1 MOL     -0.495837
    156 C51       -12.6840   -0.1870   -0.8030 c3        1 MOL      0.036083
    157 C52       -13.4190   -0.4330    0.5430 c3        1 MOL     -0.070216
    158 C53       -14.8350   -0.8570    0.2890 c         1 MOL      0.668677
    159 O21       -15.6360    0.1110    0.1410 o         1 MOL     -0.698151
    160 O22       -15.0620   -2.0770    0.3700 o         1 MOL     -0.698151
    161 H72       -11.2290    0.2260   -2.6680 hn        1 MOL      0.290318
    162 H73       -10.9550   -1.3080   -0.4260 h1        1 MOL      0.113341
    163 H74       -13.0950   -0.8750   -1.5470 hc        1 MOL      0.000667
    164 H75       -12.9120    0.8290   -1.1240 hc        1 MOL      0.000667
    165 H76       -13.4050    0.4710    1.1420 hc        1 MOL      0.019141
    166 H77       -12.9290   -1.2530    1.0610 hc        1 MOL      0.019141
    167 N15       -10.5750    1.9480    0.2160 n         1 MOL     -0.193553
    168 C54        -9.7440    2.7980    1.1230 c3        1 MOL     -0.322168
    169 H78       -10.2800    2.9610    2.0580 h1        1 MOL      0.134142
    170 H79        -8.7990    2.2960    1.3290 h1        1 MOL      0.134142
    171 H80        -9.5490    3.7580    0.6450 h1        1 MOL      0.134142
    172 H81       -10.7630    2.2280   -0.7400 hn        1 MOL      0.234103
    173 Ca1         2.6860    0.1760   -1.1530 Ca        1 MOL      1.737818
    174 O23         0.2670    0.3860   -2.2230 oh        1 MOL     -0.866585
    175 H82         0.2930    0.5470   -3.1640 ho        1 MOL      0.424579
    176 H83        -0.5220    0.8370   -1.9220 ho        1 MOL      0.424579
    177 O24         2.5800    1.5590   -3.2850 oh        1 MOL     -0.866585
    178 H84         3.3380    1.7220   -3.8600 ho        1 MOL      0.424579
    179 H85         2.0500    2.3500   -3.3580 ho        1 MOL      0.424579
@<TRIPOS>BOND
     1    1    2 1   
     2    1    4 1   
     3    1    5 1   
     4    1    6 1   
     5    2    3 2   
     6    2    7 1   
     7    7    8 1   
     8    7   15 1   
     9    8    9 1   
    10    8   11 1   
    11    8   16 1   
    12    9   10 2   
    13    9   19 1   
    14   11   12 1   
    15   11   17 1   
    16   11   18 1   
    17   12   13 1   
    18   12   14 1   
    19   19   20 1   
    20   19   28 1   
    21   20   21 1   
    22   20   23 1   
    23   20   29 1   
    24   21   22 2   
    25   21   41 1   
    26   23   24 1   
    27   23   30 1   
    28   23   31 1   
    29   24   25 1   
    30   24   32 1   
    31   24   33 1   
    32   25   26 1   
    33   25   34 1   
    34   25   35 1   
    35   26   27 1   
    36   26   36 1   
    37   26   37 1   
    38   27   38 1   
    39   27   39 1   
    40   27   40 1   
    41   41   42 1   
    42   41   49 1   
    43   42   43 1   
    44   42   45 1   
    45   42   50 1   
    46   43   44 2   
    47   43   53 1   
    48   45   46 1   
    49   45   51 1   
    50   45   52 1   
    51   46   47 1   
    52   46   48 1   
    53   53   54 1   
    54   53   57 1   
    55   54   55 1   
    56   54   58 1   
    57   54   59 1   
    58   55   56 2   
    59   55   60 1   
    60   60   61 1   
    61   60   68 1   
    62   61   62 1   
    63   61   64 1   
    64   61   69 1   
    65   62   63 2   
    66   62   74 1   
    67   64   65 1   
    68   64   70 1   
    69   64   71 1   
    70   65   66 1   
    71   65   67 2   
    72   66   72 1   
    73   66   73 1   
    74   74   75 1   
    75   74   78 1   
    76   75   76 1   
    77   75   79 1   
    78   75   80 1   
    79   76   77 2   
    80   76   81 1   
    81   81   82 1   
    82   81   93 1   
    83   82   83 1   
    84   82   85 1   
    85   82   94 1   
    86   83   84 2   
    87   83  102 1   
    88   85   86 1   
    89   85   95 1   
    90   85   96 1   
    91   86   87 ar  
    92   86   88 ar  
    93   87   89 ar  
    94   87   97 1   
    95   88   90 ar  
    96   88   98 1   
    97   89   91 ar  
    98   89   99 1   
    99   90   91 ar  
   100   90  100 1   
   101   91   92 1   
   102   92  101 1   
   103  102  103 1   
   104  102  110 1   
   105  103  104 1   
   106  103  106 1   
   107  103  111 1   
   108  104  105 2   
   109  104  121 1   
   110  106  107 1   
   111  106  108 1   
   112  106  112 1   
   113  107  109 1   
   114  107  113 1   
   115  107  114 1   
   116  108  115 1   
   117  108  116 1   
   118  108  117 1   
   119  109  118 1   
   120  109  119 1   
   121  109  120 1   
   122  121  122 1   
   123  121  127 1   
   124  122  123 1   
   125  122  125 1   
   126  122  128 1   
   127  123  124 2   
   128  123  132 1   
   129  125  126 1   
   130  125  129 1   
   131  125  130 1   
   132  126  131 1   
   133  132  133 1   
   134  132  137 1   
   135  133  134 1   
   136  133  136 1   
   137  133  138 1   
   138  134  135 2   
   139  134  142 1   
   140  136  139 1   
   141  136  140 1   
   142  136  141 1   
   143  142  143 1   
   144  142  147 1   
   145  143  144 1   
   146  143  146 1   
   147  143  148 1   
   148  144  145 2   
   149  144  152 1   
   150  146  149 1   
   151  146  150 1   
   152  146  151 1   
   153  152  153 1   
   154  152  161 1   
   155  153  154 1   
   156  153  156 1   
   157  153  162 1   
   158  154  155 2   
   159  154  167 1   
   160  156  157 1   
   161  156  163 1   
   162  156  164 1   
   163  157  158 1   
   164  157  165 1   
   165  157  166 1   
   166  158  159 1   
   167  158  160 1   
   168  167  168 1   
   169  167  172 1   
   170  168  169 1   
   171  168  170 1   
   172  168  171 1   
   173  174  175 1   
   174  174  176 1   
   175  177  178 1   
   176  177  179 1   
@<TRIPOS>SUBSTRUCTURE
     1 MOL         1 TEMP              0 ****  ****    0 ROOT
