@<TRIPOS>MOLECULE
MOL
  192   187     1     0     0
SMALL
resp


@<TRIPOS>ATOM
      1 C1          1.0940    8.0040   -1.5340 c3        1 MOL     -0.349639
      2 C2          1.3680    6.4670   -1.7130 c         1 MOL      0.647784
      3 O1          0.9300    5.8150   -2.6120 o         1 MOL     -0.541984
      4 H1          0.8110    8.2050   -0.5000 hc        1 MOL      0.090134
      5 H2          1.9950    8.5660   -1.7800 hc        1 MOL      0.090134
      6 H3          0.2840    8.3090   -2.1960 hc        1 MOL      0.090134
      7 N1          2.0610    5.9350   -0.7320 n         1 MOL     -0.513680
      8 C3          2.4200    4.5100   -0.6900 c3        1 MOL     -0.004527
      9 C4          1.1720    3.6180   -0.3300 c         1 MOL      0.396026
     10 O2          1.2010    2.3860   -0.4950 o         1 MOL     -0.500852
     11 C5          3.5300    4.3410    0.4060 c3        1 MOL     -0.106556
     12 C6          2.9400    4.6880    1.7300 c         1 MOL      0.636833
     13 O3          2.6120    5.8720    2.0450 o         1 MOL     -0.678302
     14 O4          2.8590    3.7890    2.5920 o         1 MOL     -0.678302
     15 H4          2.2420    6.3780    0.1590 hn        1 MOL      0.265692
     16 H5          2.8180    4.2030   -1.6550 h1        1 MOL      0.152545
     17 H6          4.4110    4.9340    0.1630 hc        1 MOL      0.058140
     18 H7          3.9650    3.3550    0.5670 hc        1 MOL      0.058140
     19 N2          0.0880    4.2110    0.2170 n         1 MOL     -0.257404
     20 C7         -1.1340    3.4200    0.6950 c3        1 MOL     -0.049359
     21 C8         -2.1630    3.2910   -0.4380 c         1 MOL      0.492452
     22 O5         -2.2710    4.1050   -1.3220 o         1 MOL     -0.538098
     23 C9         -1.7110    4.2120    1.8950 c3        1 MOL     -0.006693
     24 C10        -0.7600    4.2900    3.1390 c3        1 MOL     -0.073515
     25 C11        -0.5380    3.0020    3.9270 c3        1 MOL      0.051819
     26 C12         0.2460    3.2000    5.2420 c3        1 MOL     -0.229831
     27 N3          1.4770    3.9500    4.9940 n4        1 MOL     -0.084179
     28 H8          0.1430    5.2160    0.2750 hn        1 MOL      0.267053
     29 H9         -0.8890    2.3920    0.9630 h1        1 MOL      0.125832
     30 H10        -2.6490    3.7740    2.2510 hc        1 MOL      0.036348
     31 H11        -1.9240    5.2590    1.6470 hc        1 MOL      0.036348
     32 H12        -1.2660    5.0050    3.7930 hc        1 MOL      0.024841
     33 H13         0.1930    4.6940    2.7750 hc        1 MOL      0.024841
     34 H14         0.0010    2.2500    3.3440 hc        1 MOL      0.062116
     35 H15        -1.4650    2.5350    4.2630 hc        1 MOL      0.062116
     36 H16         0.5530    2.2330    5.6210 hx        1 MOL      0.114126
     37 H17        -0.4740    3.5890    5.9690 hx        1 MOL      0.114126
     38 H18         2.2060    3.9210    5.6870 hn        1 MOL      0.240916
     39 H19         2.0490    3.7620    4.1750 hn        1 MOL      0.240916
     40 H20         1.2950    4.9340    4.9180 hn        1 MOL      0.240916
     41 N4         -3.0430    2.2950   -0.5290 n         1 MOL     -0.413181
     42 C13        -3.3720    1.1650    0.3620 c3        1 MOL     -0.105591
     43 C14        -3.7670    1.5140    1.7720 c         1 MOL      0.392579
     44 O6         -3.0540    1.1670    2.7160 o         1 MOL     -0.573470
     45 C15        -2.3970    0.0520    0.2330 c3        1 MOL      0.815771
     46 C16        -1.9370   -0.3500   -1.1590 c         1 MOL      0.283237
     47 O7         -2.7150   -0.2390   -2.1570 o         1 MOL     -0.728685
     48 O8         -0.7430   -0.7520   -1.2880 o         1 MOL     -0.728685
     49 H21        -3.6520    2.2690   -1.3340 hn        1 MOL      0.287830
     50 H22        -4.2670    0.7750   -0.1170 h1        1 MOL      0.099266
     51 H23        -2.8150   -0.7880    0.7980 hc        1 MOL     -0.144859
     52 H24        -1.4970    0.3870    0.7530 hc        1 MOL     -0.144859
     53 N5         -4.8830    2.2350    1.9470 n         1 MOL     -0.229622
     54 C17        -5.9980    2.5800    0.9960 c3        1 MOL     -0.178140
     55 C18        -7.2250    2.9380    1.6890 c         1 MOL      0.619332
     56 O9         -7.2180    3.5800    2.7250 o         1 MOL     -0.581682
     57 H25        -5.1320    2.5670    2.8730 hn        1 MOL      0.252382
     58 H26        -6.2400    1.6640    0.4640 h1        1 MOL      0.102051
     59 H27        -5.6900    3.3570    0.2930 h1        1 MOL      0.102051
     60 N6         -8.4490    2.5430    1.2680 n         1 MOL     -0.527902
     61 C19        -8.6920    1.9390   -0.0450 c3        1 MOL      0.199789
     62 C20        -8.2950    0.4280    0.0430 c         1 MOL      0.539743
     63 O10        -8.3500   -0.1790    1.1500 o         1 MOL     -0.545091
     64 C21       -10.2050    2.1630   -0.4270 c3        1 MOL     -0.318472
     65 C22       -10.5670    2.0310   -1.9590 c         1 MOL      0.652727
     66 O11        -9.7050    2.2880   -2.7700 o         1 MOL     -0.620260
     67 O12       -11.7470    1.8470   -2.3750 o         1 MOL     -0.620260
     68 H28        -9.1640    2.8810    1.8990 hn        1 MOL      0.319970
     69 H29        -8.1040    2.3520   -0.8530 h1        1 MOL      0.007047
     70 H30       -10.4380    3.1980   -0.2040 hc        1 MOL      0.091545
     71 H31       -10.9110    1.5480    0.1300 hc        1 MOL      0.091545
     72 N7         -7.8830   -0.2220   -1.0480 n         1 MOL     -0.377897
     73 C23        -7.5190   -1.6800   -1.0870 c3        1 MOL     -0.293134
     74 C24        -6.2650   -2.0040   -0.2740 c         1 MOL      0.714406
     75 O13        -5.4890   -1.1810    0.2120 o         1 MOL     -0.523086
     76 H32        -7.7650    0.3550   -1.8580 hn        1 MOL      0.258346
     77 H33        -7.1940   -1.8020   -2.1170 h1        1 MOL      0.160353
     78 H34        -8.3930   -2.2810   -0.8640 h1        1 MOL      0.160353
     79 N8         -5.8350   -3.2770   -0.3930 n         1 MOL     -0.565486
     80 C25        -4.9890   -3.8230    0.6490 c3        1 MOL      0.127774
     81 C26        -3.4530   -3.5380    0.4940 c         1 MOL      0.619953
     82 O14        -3.0350   -3.0510   -0.5510 o         1 MOL     -0.579731
     83 C27        -5.2990   -5.3370    0.6760 c3        1 MOL      0.480384
     84 C28        -4.8140   -6.1860   -0.5020 c3        1 MOL     -0.460968
     85 O15        -6.6900   -5.6140    0.9020 oh        1 MOL     -0.666660
     86 H35        -6.4420   -3.9230   -0.8660 hn        1 MOL      0.260396
     87 H36        -5.2630   -3.4470    1.6350 h1        1 MOL      0.046584
     88 H37        -4.7960   -5.6720    1.5740 h1        1 MOL     -0.049072
     89 H38        -6.9320   -6.3860    0.3870 ho        1 MOL      0.407747
     90 H39        -4.8840   -7.2670   -0.3350 hc        1 MOL      0.116028
     91 H40        -5.3210   -5.8120   -1.3860 hc        1 MOL      0.116028
     92 H41        -3.7570   -5.9500   -0.5730 hc        1 MOL      0.116028
     93 N9         -2.7110   -3.7940    1.5920 n         1 MOL     -0.637679
     94 C29        -1.2950   -3.4060    1.7280 c3        1 MOL      0.019429
     95 C30        -0.3730   -4.4820    1.1480 c         1 MOL      0.585773
     96 O16        -0.5240   -5.6510    1.5240 o         1 MOL     -0.555326
     97 C31        -0.9670   -3.0640    3.1850 c3        1 MOL      0.075485
     98 C32        -1.9710   -2.0720    3.8820 c3        1 MOL      0.229145
     99 C33         0.4270   -2.3640    3.2070 c3        1 MOL     -0.588031
    100 C34        -1.5960   -1.6900    5.3000 c3        1 MOL     -0.383720
    101 H42        -3.2730   -4.0300    2.3910 hn        1 MOL      0.331469
    102 H43        -1.1830   -2.4580    1.2130 h1        1 MOL     -0.024575
    103 H44        -0.9430   -3.9660    3.7930 hc        1 MOL      0.034058
    104 H45        -2.9200   -2.6030    3.9100 hc        1 MOL     -0.012892
    105 H46        -2.1450   -1.1590    3.2940 hc        1 MOL     -0.012892
    106 H47         0.2660   -1.3340    2.8940 hc        1 MOL      0.145324
    107 H48         0.9070   -2.5900    4.1630 hc        1 MOL      0.145324
    108 H49         0.9980   -2.9340    2.4680 hc        1 MOL      0.145324
    109 H50        -2.5120   -1.4500    5.8540 hc        1 MOL      0.092608
    110 H51        -0.9400   -2.3960    5.8020 hc        1 MOL      0.092608
    111 H52        -1.0640   -0.7340    5.3200 hc        1 MOL      0.092608
    112 N10         0.4590   -4.1440    0.1790 n         1 MOL     -0.258802
    113 C35         1.4910   -5.0290   -0.2590 c3        1 MOL     -0.261772
    114 C36         2.8980   -4.7880    0.3610 c         1 MOL      0.440669
    115 O17         3.6590   -5.7270    0.4330 o         1 MOL     -0.487374
    116 C37         1.4380   -5.1430   -1.8000 c3        1 MOL      0.477528
    117 C38         1.9090   -3.8410   -2.5110 c3        1 MOL     -0.041367
    118 O18         0.1300   -5.3960   -2.2740 oh        1 MOL     -0.711240
    119 H53         0.5180   -3.1910   -0.1350 hn        1 MOL      0.378209
    120 H54         1.2440   -6.0480    0.0460 h1        1 MOL      0.126123
    121 H55         2.0390   -6.0180   -2.0630 h1        1 MOL     -0.024079
    122 H56        -0.0210   -6.3250   -2.1570 ho        1 MOL      0.434268
    123 H57         2.9410   -3.6740   -2.2130 hc        1 MOL     -0.036146
    124 H58         1.6880   -3.7690   -3.5810 hc        1 MOL     -0.036146
    125 H59         1.3330   -2.9930   -2.1320 hc        1 MOL     -0.036146
    126 N11         3.0920   -3.5910    0.9690 n         1 MOL     -0.163803
    127 C39         4.3680   -3.0500    1.4710 c3        1 MOL     -0.038346
    128 C40         5.4470   -2.9160    0.3500 c         1 MOL      0.403326
    129 O19         5.0770   -3.2280   -0.8150 o         1 MOL     -0.440113
    130 C41         4.8950   -3.8920    2.6550 c3        1 MOL      0.336673
    131 C42         3.9360   -4.0080    3.8330 c3        1 MOL     -0.269491
    132 O20         6.0360   -3.2110    3.2020 oh        1 MOL     -0.639168
    133 H60         2.3370   -2.9180    0.8910 hn        1 MOL      0.172391
    134 H61         4.2180   -2.0580    1.8960 h1        1 MOL      0.090752
    135 H62         5.1080   -4.9080    2.2970 h1        1 MOL      0.014255
    136 H63         6.5930   -3.8720    3.6310 ho        1 MOL      0.392835
    137 H64         4.5240   -4.2820    4.7050 hc        1 MOL      0.067523
    138 H65         3.3280   -3.1220    3.9790 hc        1 MOL      0.067523
    139 H66         3.2040   -4.8050    3.6520 hc        1 MOL      0.067523
    140 N12         6.5670   -2.2630    0.6170 n         1 MOL     -0.463162
    141 C43         7.5230   -1.8730   -0.4610 c3        1 MOL      0.068547
    142 C44         7.0840   -0.8900   -1.5000 c         1 MOL      0.472859
    143 O21         7.7470   -0.7230   -2.5030 o         1 MOL     -0.548942
    144 C45         8.8550   -1.4030    0.1330 c3        1 MOL     -0.028638
    145 C46         8.7120    0.0100    0.7740 c3        1 MOL      0.080613
    146 C47         9.4410    0.2080    2.1030 c3        1 MOL     -0.219211
    147 C48         9.1370    1.6060    2.6760 c3        1 MOL      0.051374
    148 N13        10.0980    1.9720    3.7060 n4        1 MOL     -0.160960
    149 H67         6.8060   -2.1890    1.6000 hn        1 MOL      0.291208
    150 H68         7.7470   -2.7730   -1.0300 h1        1 MOL      0.106983
    151 H69         9.4840   -1.4080   -0.7490 hc        1 MOL      0.026023
    152 H70         9.2730   -2.1570    0.8060 hc        1 MOL      0.026023
    153 H71         7.6710    0.2530    0.9920 hc        1 MOL      0.022674
    154 H72         9.0770    0.7200    0.0250 hc        1 MOL      0.022674
    155 H73        10.4550    0.1880    1.7120 hc        1 MOL      0.064670
    156 H74         9.2700   -0.6450    2.7590 hc        1 MOL      0.064670
    157 H75         8.1130    1.5710    3.0440 hx        1 MOL      0.086757
    158 H76         9.2970    2.3300    1.8720 hx        1 MOL      0.086757
    159 H77         9.9320    2.9050    4.0470 hn        1 MOL      0.224036
    160 H78        10.1500    1.3190    4.4750 hn        1 MOL      0.224036
    161 H79        11.0110    1.9000    3.2860 hn        1 MOL      0.224036
    162 N14         5.9860   -0.1160   -1.3420 n         1 MOL     -0.187917
    163 C49         5.4850    0.8600   -2.3350 c3        1 MOL     -0.412855
    164 C50         6.1430    2.2490   -2.1830 c         1 MOL      0.486393
    165 O22         6.1990    2.8350   -1.1020 o         1 MOL     -0.561005
    166 C51         3.9740    0.9970   -2.1850 c3        1 MOL      0.086283
    167 C52         3.1160   -0.2920   -2.3580 c3        1 MOL     -0.095337
    168 C53         2.9330   -0.9720   -3.7270 c         1 MOL      0.827090
    169 O23         3.8980   -1.0880   -4.5150 o         1 MOL     -0.723620
    170 O24         1.7540   -1.1880   -4.1010 o         1 MOL     -0.723620
    171 H80         5.6180   -0.0660   -0.4010 hn        1 MOL      0.244538
    172 H81         5.6670    0.4470   -3.3310 h1        1 MOL      0.239580
    173 H82         3.5980    1.7710   -2.8560 hc        1 MOL      0.016429
    174 H83         3.7190    1.4130   -1.2070 hc        1 MOL      0.016429
    175 H84         2.1260   -0.0180   -2.0260 hc        1 MOL     -0.019274
    176 H85         3.5180   -1.0180   -1.6540 hc        1 MOL     -0.019274
    177 N15         6.8090    2.6460   -3.2490 n         1 MOL     -0.170849
    178 C54         7.4020    3.9310   -3.4900 c3        1 MOL     -0.218297
    179 H86         7.4170    4.1280   -4.5620 h1        1 MOL      0.099722
    180 H87         6.8170    4.7020   -2.9870 h1        1 MOL      0.099722
    181 H88         8.4220    3.9400   -3.1050 h1        1 MOL      0.099722
    182 H89         6.7350    2.0450   -4.0520 hn        1 MOL      0.232519
    183 Ca1        -0.7980   -0.9520   -3.9570 Ca        1 MOL      1.726685
    184 O25        -0.1130    1.6340   -3.0360 oh        1 MOL     -0.806921
    185 H90        -0.6930    2.3460   -3.3100 ho        1 MOL      0.397195
    186 H91         0.0320    1.7900   -2.1070 ho        1 MOL      0.397195
    187 O26        -1.3060   -3.1250   -2.4490 oh        1 MOL     -0.806921
    188 H92        -0.8690   -3.9770   -2.3520 ho        1 MOL      0.397195
    189 H93        -1.7940   -3.0240   -1.6270 ho        1 MOL      0.397195
    190 O27         0.2730   -0.0770   -6.3060 oh        1 MOL     -0.806921
    191 H94        -0.2640   -0.3970   -7.0360 ho        1 MOL      0.397195
    192 H95         1.1500   -0.4380   -6.4810 ho        1 MOL      0.397195
@<TRIPOS>BOND
     1    1    2 1   
     2    1    4 1   
     3    1    5 1   
     4    1    6 1   
     5    2    3 2   
     6    2    7 1   
     7    7    8 1   
     8    7   15 1   
     9    8    9 1   
    10    8   11 1   
    11    8   16 1   
    12    9   10 2   
    13    9   19 1   
    14   11   12 1   
    15   11   17 1   
    16   11   18 1   
    17   12   13 1   
    18   12   14 1   
    19   19   20 1   
    20   19   28 1   
    21   20   21 1   
    22   20   23 1   
    23   20   29 1   
    24   21   22 2   
    25   21   41 1   
    26   23   24 1   
    27   23   30 1   
    28   23   31 1   
    29   24   25 1   
    30   24   32 1   
    31   24   33 1   
    32   25   26 1   
    33   25   34 1   
    34   25   35 1   
    35   26   27 1   
    36   26   36 1   
    37   26   37 1   
    38   27   38 1   
    39   27   39 1   
    40   27   40 1   
    41   41   42 1   
    42   41   49 1   
    43   42   43 1   
    44   42   45 1   
    45   42   50 1   
    46   43   44 2   
    47   43   53 1   
    48   45   46 1   
    49   45   51 1   
    50   45   52 1   
    51   46   47 1   
    52   46   48 1   
    53   53   54 1   
    54   53   57 1   
    55   54   55 1   
    56   54   58 1   
    57   54   59 1   
    58   55   56 2   
    59   55   60 1   
    60   60   61 1   
    61   60   68 1   
    62   61   62 1   
    63   61   64 1   
    64   61   69 1   
    65   62   63 2   
    66   62   72 1   
    67   64   65 1   
    68   64   70 1   
    69   64   71 1   
    70   65   66 1   
    71   65   67 1   
    72   72   73 1   
    73   72   76 1   
    74   73   74 1   
    75   73   77 1   
    76   73   78 1   
    77   74   75 2   
    78   74   79 1   
    79   79   80 1   
    80   79   86 1   
    81   80   81 1   
    82   80   83 1   
    83   80   87 1   
    84   81   82 2   
    85   81   93 1   
    86   83   84 1   
    87   83   85 1   
    88   83   88 1   
    89   84   90 1   
    90   84   91 1   
    91   84   92 1   
    92   85   89 1   
    93   93   94 1   
    94   93  101 1   
    95   94   95 1   
    96   94   97 1   
    97   94  102 1   
    98   95   96 2   
    99   95  112 1   
   100   97   98 1   
   101   97   99 1   
   102   97  103 1   
   103   98  100 1   
   104   98  104 1   
   105   98  105 1   
   106   99  106 1   
   107   99  107 1   
   108   99  108 1   
   109  100  109 1   
   110  100  110 1   
   111  100  111 1   
   112  112  113 1   
   113  112  119 1   
   114  113  114 1   
   115  113  116 1   
   116  113  120 1   
   117  114  115 2   
   118  114  126 1   
   119  116  117 1   
   120  116  118 1   
   121  116  121 1   
   122  117  123 1   
   123  117  124 1   
   124  117  125 1   
   125  118  122 1   
   126  126  127 1   
   127  126  133 1   
   128  127  128 1   
   129  127  130 1   
   130  127  134 1   
   131  128  129 2   
   132  128  140 1   
   133  130  131 1   
   134  130  132 1   
   135  130  135 1   
   136  131  137 1   
   137  131  138 1   
   138  131  139 1   
   139  132  136 1   
   140  140  141 1   
   141  140  149 1   
   142  141  142 1   
   143  141  144 1   
   144  141  150 1   
   145  142  143 2   
   146  142  162 1   
   147  144  145 1   
   148  144  151 1   
   149  144  152 1   
   150  145  146 1   
   151  145  153 1   
   152  145  154 1   
   153  146  147 1   
   154  146  155 1   
   155  146  156 1   
   156  147  148 1   
   157  147  157 1   
   158  147  158 1   
   159  148  159 1   
   160  148  160 1   
   161  148  161 1   
   162  162  163 1   
   163  162  171 1   
   164  163  164 1   
   165  163  166 1   
   166  163  172 1   
   167  164  165 2   
   168  164  177 1   
   169  166  167 1   
   170  166  173 1   
   171  166  174 1   
   172  167  168 1   
   173  167  175 1   
   174  167  176 1   
   175  168  169 1   
   176  168  170 1   
   177  177  178 1   
   178  177  182 1   
   179  178  179 1   
   180  178  180 1   
   181  178  181 1   
   182  184  185 1   
   183  184  186 1   
   184  187  188 1   
   185  187  189 1   
   186  190  191 1   
   187  190  192 1   
@<TRIPOS>SUBSTRUCTURE
     1 MOL         1 TEMP              0 ****  ****    0 ROOT
