@<TRIPOS>MOLECULE
MOL
  195   189     1     0     0
SMALL
resp


@<TRIPOS>ATOM
      1 C1          5.2550    2.9550    5.9420 c3        1 MOL     -0.303753
      2 C2          4.8550    2.4530    4.5410 c         1 MOL      0.698520
      3 O1          4.4980    3.2640    3.6330 o         1 MOL     -0.591126
      4 H1          5.1360    2.1480    6.6650 hc        1 MOL      0.075445
      5 H2          6.2950    3.2800    5.9290 hc        1 MOL      0.075445
      6 H3          4.6150    3.7920    6.2250 hc        1 MOL      0.075445
      7 N1          4.9130    1.1480    4.3190 n         1 MOL     -0.477837
      8 C3          4.7330    0.5450    2.9460 c3        1 MOL      0.316224
      9 C4          3.2810    0.4780    2.3370 c         1 MOL     -0.098486
     10 O2          3.1960    0.1190    1.1280 o         1 MOL     -0.353186
     11 C5          5.4410   -0.8530    2.7960 c3        1 MOL     -0.093233
     12 C6          6.8600   -0.8740    3.2600 c         1 MOL      0.648803
     13 O3          7.7850   -1.2270    2.4760 o         1 MOL     -0.687769
     14 O4          7.1570   -0.5590    4.4510 o         1 MOL     -0.687769
     15 H4          5.1980    0.5360    5.0670 hn        1 MOL      0.237490
     16 H5          5.2270    1.2970    2.3320 h1        1 MOL      0.071235
     17 H6          5.4260   -1.1590    1.7410 hc        1 MOL     -0.011352
     18 H7          5.0050   -1.6080    3.4500 hc        1 MOL     -0.011352
     19 N2          2.2310    0.8150    3.1000 n         1 MOL     -0.001423
     20 C7          0.8150    0.5020    2.8220 c3        1 MOL      0.012038
     21 C8          0.0080    1.7380    2.3860 c         1 MOL      0.463186
     22 O5          0.0270    2.7490    3.1080 o         1 MOL     -0.529486
     23 C9          0.2500   -0.2560    4.0650 c3        1 MOL     -0.442983
     24 C10         0.9880   -1.5850    4.3360 c3        1 MOL      0.217041
     25 C11         0.4670   -2.3380    5.5790 c3        1 MOL     -0.213095
     26 C12        -0.9460   -2.8580    5.2200 c3        1 MOL      0.200540
     27 N3         -1.6260   -3.5940    6.3300 n4        1 MOL     -0.419944
     28 H8          2.4630    1.3170    3.9370 hn        1 MOL      0.171829
     29 H9          0.7790   -0.2050    1.9910 h1        1 MOL      0.039779
     30 H10        -0.7870   -0.5050    3.8640 hc        1 MOL      0.128846
     31 H11         0.4370    0.3930    4.9140 hc        1 MOL      0.128846
     32 H12         2.0550   -1.4030    4.5010 hc        1 MOL      0.016092
     33 H13         0.8540   -2.1120    3.3960 hc        1 MOL      0.016092
     34 H14         0.3640   -1.7070    6.4600 hc        1 MOL      0.057529
     35 H15         1.1070   -3.2120    5.7360 hc        1 MOL      0.057529
     36 H16        -0.7510   -3.5820    4.4330 hx        1 MOL      0.054164
     37 H17        -1.5440   -2.0200    4.8610 hx        1 MOL      0.054164
     38 H18        -1.0710   -4.3360    6.7350 hn        1 MOL      0.335842
     39 H19        -1.6570   -2.9970    7.1390 hn        1 MOL      0.335842
     40 H20        -2.5680   -3.8760    6.0820 hn        1 MOL      0.335842
     41 N4         -0.6930    1.7440    1.2670 n         1 MOL     -0.007926
     42 C13        -1.1730    0.6050    0.4650 c3        1 MOL     -0.352984
     43 C14        -1.5990   -0.6890    1.1150 c         1 MOL      0.547890
     44 O6         -0.9680   -1.6980    0.9370 o         1 MOL     -0.502000
     45 C15        -0.1550    0.3590   -0.7010 c3        1 MOL      0.047675
     46 C16        -0.0110    1.6070   -1.5460 c         1 MOL      0.445385
     47 O7         -0.7570    2.6070   -1.3810 o         1 MOL     -0.656304
     48 O8          0.7130    1.5590   -2.5950 o         1 MOL     -0.656304
     49 H21        -0.9240    2.6750    0.9450 hn        1 MOL      0.051399
     50 H22        -2.0690    0.9660   -0.0300 h1        1 MOL      0.097081
     51 H23        -0.4130   -0.4980   -1.3160 hc        1 MOL      0.071416
     52 H24         0.8680    0.1110   -0.4170 hc        1 MOL      0.071416
     53 N5         -2.5810   -0.6560    2.0000 n         1 MOL     -0.242620
     54 C17        -3.5200    0.4770    2.2580 c3        1 MOL      0.113297
     55 C18        -4.7610    0.0820    3.0550 c         1 MOL      0.462540
     56 O9         -4.7150   -0.9720    3.6150 o         1 MOL     -0.570405
     57 H25        -2.8170   -1.5000    2.5020 hn        1 MOL      0.141469
     58 H26        -3.9570    0.8600    1.3260 h1        1 MOL      0.013970
     59 H27        -2.9650    1.2710    2.7590 h1        1 MOL      0.013970
     60 N6         -5.8840    0.7700    3.1010 n         1 MOL     -0.277345
     61 C19        -6.0610    2.0620    2.2470 c3        1 MOL     -0.276808
     62 C20        -6.4620    1.8370    0.7910 c         1 MOL      0.407131
     63 O10        -6.2920    2.7230   -0.0720 o         1 MOL     -0.480570
     64 C21        -7.0530    3.0160    2.9040 c3        1 MOL     -0.123758
     65 C22        -8.2960    2.3490    3.4160 c         1 MOL      0.744801
     66 O11        -9.2220    2.0000    2.6450 o         1 MOL     -0.720372
     67 O12        -8.3600    2.1850    4.6380 o         1 MOL     -0.720372
     68 H28        -6.5490    0.4200    3.7730 hn        1 MOL      0.288424
     69 H29        -5.0880    2.5550    2.2040 h1        1 MOL      0.153858
     70 H30        -7.3000    3.8370    2.2210 hc        1 MOL      0.047323
     71 H31        -6.5880    3.5670    3.7230 hc        1 MOL      0.047323
     72 N7         -6.8720    0.6550    0.4170 n         1 MOL     -0.182438
     73 C23        -7.0340    0.1980   -1.0140 c3        1 MOL     -0.135694
     74 C24        -5.7280    0.0160   -1.7970 c         1 MOL      0.322715
     75 O13        -4.6580    0.4590   -1.3280 o         1 MOL     -0.370954
     76 H32        -6.7680   -0.1370    1.0320 hn        1 MOL      0.221408
     77 H33        -7.6220    0.9620   -1.5370 h1        1 MOL      0.106620
     78 H34        -7.6040   -0.7250   -0.9420 h1        1 MOL      0.106620
     79 N8         -5.8130   -0.7250   -2.9250 n         1 MOL     -0.263399
     80 C25        -4.7550   -1.4730   -3.6810 c3        1 MOL      0.070005
     81 C26        -3.7440   -2.1350   -2.7730 c         1 MOL      0.302087
     82 O14        -2.5360   -1.7660   -2.8070 o         1 MOL     -0.428623
     83 C27        -4.0860   -0.6010   -4.8570 c3        1 MOL      0.428814
     84 C28        -3.9900    0.9140   -4.6110 c3        1 MOL     -0.440555
     85 O15        -4.7900   -0.8700   -6.0360 oh        1 MOL     -0.697294
     86 H35        -6.7690   -0.8870   -3.2120 hn        1 MOL      0.248079
     87 H36        -5.2880   -2.3430   -4.0510 h1        1 MOL      0.082644
     88 H37        -3.1010   -1.0370   -5.0280 h1        1 MOL      0.012488
     89 H38        -4.2410   -0.5270   -6.7460 ho        1 MOL      0.412865
     90 H39        -3.4590    1.0270   -3.6730 hc        1 MOL      0.100524
     91 H40        -3.3490    1.3570   -5.3810 hc        1 MOL      0.100524
     92 H41        -4.9520    1.4210   -4.5260 hc        1 MOL      0.100524
     93 N9         -4.2290   -2.9570   -1.8040 n         1 MOL     -0.328803
     94 C29        -3.5840   -3.4350   -0.5950 c3        1 MOL      0.030943
     95 C30        -2.5280   -4.4970   -0.8530 c         1 MOL      0.499618
     96 O16        -2.7840   -5.6400   -0.6740 o         1 MOL     -0.531266
     97 C31        -4.6710   -3.9660    0.4150 c3        1 MOL     -0.011730
     98 C32        -5.9260   -3.0360    0.4210 c3        1 MOL      0.314055
     99 C33        -4.0960   -4.1020    1.8870 c3        1 MOL     -0.221702
    100 C34        -7.2080   -3.5000    1.1440 c3        1 MOL     -0.286168
    101 H42        -5.2020   -3.1750   -1.9420 hn        1 MOL      0.225766
    102 H43        -3.1050   -2.5740   -0.1320 h1        1 MOL      0.021270
    103 H44        -5.0470   -4.9550    0.1570 hc        1 MOL      0.049276
    104 H45        -6.2870   -2.9070   -0.5940 hc        1 MOL     -0.083796
    105 H46        -5.7160   -2.0670    0.8740 hc        1 MOL     -0.083796
    106 H47        -3.5880   -3.1690    2.1300 hc        1 MOL      0.058205
    107 H48        -4.9010   -4.3340    2.5820 hc        1 MOL      0.058205
    108 H49        -3.3420   -4.8780    2.0330 hc        1 MOL      0.058205
    109 H50        -8.0300   -2.8300    0.9030 hc        1 MOL      0.069126
    110 H51        -7.4150   -4.5530    0.9850 hc        1 MOL      0.069126
    111 H52        -7.0040   -3.3450    2.2070 hc        1 MOL      0.069126
    112 N10        -1.3670   -4.1160   -1.4460 n         1 MOL     -0.177562
    113 C35        -0.2950   -5.0370   -1.9060 c3        1 MOL     -0.075994
    114 C36         1.0660   -4.5020   -1.5010 c         1 MOL      0.371194
    115 O17         2.1240   -4.9980   -1.9980 o         1 MOL     -0.511492
    116 C37        -0.5160   -5.2150   -3.4320 c3        1 MOL      0.296070
    117 C38        -0.1810   -4.0190   -4.3730 c3        1 MOL     -0.249189
    118 O18        -1.8300   -5.5910   -3.7830 oh        1 MOL     -0.623050
    119 H53        -1.2400   -3.1690   -1.7790 hn        1 MOL      0.249448
    120 H54        -0.4210   -6.0020   -1.4060 h1        1 MOL      0.122903
    121 H55         0.1340   -6.0460   -3.6860 h1        1 MOL     -0.001974
    122 H56        -1.8030   -6.1110   -4.5880 ho        1 MOL      0.397931
    123 H57        -0.5880   -4.1010   -5.3830 hc        1 MOL      0.066745
    124 H58        -0.6340   -3.1150   -3.9520 hc        1 MOL      0.066745
    125 H59         0.8880   -3.9110   -4.5030 hc        1 MOL      0.066745
    126 N11         1.1070   -3.4140   -0.6610 n         1 MOL     -0.213804
    127 C39         2.3020   -2.6550   -0.2240 c3        1 MOL      0.089646
    128 C40         3.0770   -2.0690   -1.4350 c         1 MOL      0.232421
    129 O19         2.8220   -2.2900   -2.6250 o         1 MOL     -0.468856
    130 C41         3.2280   -3.3380    0.7690 c3        1 MOL      0.522046
    131 C42         3.7310   -4.7810    0.5030 c3        1 MOL     -0.401638
    132 O20         2.4260   -3.4310    1.9620 oh        1 MOL     -0.700528
    133 H60         0.2210   -3.1840   -0.2440 hn        1 MOL      0.061089
    134 H61         1.8790   -1.7840    0.2690 h1        1 MOL      0.195670
    135 H62         4.0960   -2.6900    0.9270 h1        1 MOL     -0.064999
    136 H63         2.9560   -3.7970    2.6860 ho        1 MOL      0.376205
    137 H64         2.8270   -5.3970    0.5600 hc        1 MOL      0.096426
    138 H65         4.1610   -4.8930   -0.4930 hc        1 MOL      0.096426
    139 H66         4.4850   -5.0580    1.2400 hc        1 MOL      0.096426
    140 N12         4.0830   -1.2360   -1.1000 n         1 MOL     -0.126247
    141 C43         5.0500   -0.5780   -2.0340 c3        1 MOL     -0.053510
    142 C44         5.0240    0.9280   -2.0830 c         1 MOL      0.535890
    143 O21         5.8550    1.4000   -2.9290 o         1 MOL     -0.606432
    144 C45         6.4660   -1.1660   -1.6980 c3        1 MOL     -0.018324
    145 C46         6.6440   -2.6720   -2.1400 c3        1 MOL      0.161292
    146 C47         8.0540   -3.2480   -1.9380 c3        1 MOL     -0.141492
    147 C48         9.1360   -2.5360   -2.7950 c3        1 MOL      0.213092
    148 N13        10.4260   -3.3090   -2.7680 n4        1 MOL     -0.497963
    149 H67         4.1970   -1.0700   -0.1020 hn        1 MOL      0.160153
    150 H68         4.7140   -0.8730   -3.0310 h1        1 MOL      0.088559
    151 H69         6.7160   -1.0960   -0.6360 hc        1 MOL      0.012440
    152 H70         7.1000   -0.5640   -2.3400 hc        1 MOL      0.012440
    153 H71         6.4790   -2.6310   -3.2210 hc        1 MOL     -0.018613
    154 H72         5.8980   -3.3180   -1.6800 hc        1 MOL     -0.018613
    155 H73         8.0150   -4.2550   -2.3650 hc        1 MOL      0.038537
    156 H74         8.2280   -3.1450   -0.8700 hc        1 MOL      0.038537
    157 H75         9.2620   -1.5420   -2.3450 hx        1 MOL      0.047880
    158 H76         8.7910   -2.3490   -3.8070 hx        1 MOL      0.047880
    159 H77        10.7660   -3.2630   -1.8130 hn        1 MOL      0.351987
    160 H78        10.3950   -4.2740   -3.0780 hn        1 MOL      0.351987
    161 H79        11.1670   -2.8480   -3.2870 hn        1 MOL      0.351987
    162 N14         4.1440    1.5430   -1.3130 n         1 MOL     -0.224725
    163 C49         4.0100    3.0340   -1.2490 c3        1 MOL     -0.114062
    164 C50         5.3330    3.7480   -0.9370 c         1 MOL      0.276212
    165 O22         5.9570    3.4420    0.1090 o         1 MOL     -0.484629
    166 C51         2.8780    3.3340   -0.2590 c3        1 MOL      0.520404
    167 C52         2.4260    4.7660    0.0390 c3        1 MOL     -0.303366
    168 C53         1.8280    5.3870   -1.2150 c         1 MOL      0.594332
    169 O23         2.6810    5.9360   -1.9420 o         1 MOL     -0.688816
    170 O24         0.6280    5.5960   -1.3340 o         1 MOL     -0.688816
    171 H80         3.5650    1.0380   -0.6500 hn        1 MOL      0.166765
    172 H81         3.6780    3.3750   -2.2280 h1        1 MOL      0.108030
    173 H82         3.1190    2.8890    0.7020 hc        1 MOL     -0.128097
    174 H83         1.9790    2.8500   -0.6530 hc        1 MOL     -0.128097
    175 H84         3.2130    5.3540    0.5130 hc        1 MOL      0.085141
    176 H85         1.6840    4.7170    0.8340 hc        1 MOL      0.085141
    177 N15         5.7030    4.7170   -1.7140 n         1 MOL     -0.041083
    178 C54         6.8450    5.6720   -1.5810 c3        1 MOL     -0.323379
    179 H86         6.7360    6.4710   -2.3140 h1        1 MOL      0.125430
    180 H87         6.8480    6.0970   -0.5780 h1        1 MOL      0.125430
    181 H88         7.7830    5.1440   -1.7560 h1        1 MOL      0.125430
    182 H89         5.1810    4.8020   -2.5720 hn        1 MOL      0.208297
    183 Ca1        -1.6870    4.8230   -1.7020 Ca        1 MOL      1.754063
    184 O25        -3.5750    3.0710   -1.2610 oh        1 MOL     -0.879292
    185 H90        -4.4600    3.4030   -1.3890 ho        1 MOL      0.433602
    186 H91        -3.6810    2.1130   -1.2510 ho        1 MOL      0.433602
    187 O26        -1.3110    3.6100   -4.1060 oh        1 MOL     -0.879292
    188 H92        -1.3440    3.3700   -5.0310 ho        1 MOL      0.433602
    189 H93        -0.7160    2.9820   -3.7150 ho        1 MOL      0.433602
    190 O27        -1.1920    6.7290   -3.4750 oh        1 MOL     -0.879292
    191 H94        -1.4200    6.6860   -4.4100 ho        1 MOL      0.433602
    192 H95        -0.7900    7.5800   -3.3600 ho        1 MOL      0.433602
    193 O28        -4.0160    5.3590   -3.3360 oh        1 MOL     -0.879292
    194 H96        -3.3750    5.6120   -4.0010 ho        1 MOL      0.433602
    195 H97        -4.6620    4.8360   -3.8140 ho        1 MOL      0.433602
@<TRIPOS>BOND
     1    1    2 1   
     2    1    4 1   
     3    1    5 1   
     4    1    6 1   
     5    2    3 2   
     6    2    7 1   
     7    7    8 1   
     8    7   15 1   
     9    8    9 1   
    10    8   11 1   
    11    8   16 1   
    12    9   10 2   
    13    9   19 1   
    14   11   12 1   
    15   11   17 1   
    16   11   18 1   
    17   12   13 1   
    18   12   14 1   
    19   19   20 1   
    20   19   28 1   
    21   20   21 1   
    22   20   23 1   
    23   20   29 1   
    24   21   22 2   
    25   21   41 1   
    26   23   24 1   
    27   23   30 1   
    28   23   31 1   
    29   24   25 1   
    30   24   32 1   
    31   24   33 1   
    32   25   26 1   
    33   25   34 1   
    34   25   35 1   
    35   26   27 1   
    36   26   36 1   
    37   26   37 1   
    38   27   38 1   
    39   27   39 1   
    40   27   40 1   
    41   41   42 1   
    42   41   49 1   
    43   42   43 1   
    44   42   45 1   
    45   42   50 1   
    46   43   44 2   
    47   43   53 1   
    48   45   46 1   
    49   45   51 1   
    50   45   52 1   
    51   46   47 1   
    52   46   48 1   
    53   53   54 1   
    54   53   57 1   
    55   54   55 1   
    56   54   58 1   
    57   54   59 1   
    58   55   56 2   
    59   55   60 1   
    60   60   61 1   
    61   60   68 1   
    62   61   62 1   
    63   61   64 1   
    64   61   69 1   
    65   62   63 2   
    66   62   72 1   
    67   64   65 1   
    68   64   70 1   
    69   64   71 1   
    70   65   66 1   
    71   65   67 1   
    72   72   73 1   
    73   72   76 1   
    74   73   74 1   
    75   73   77 1   
    76   73   78 1   
    77   74   75 2   
    78   74   79 1   
    79   79   80 1   
    80   79   86 1   
    81   80   81 1   
    82   80   83 1   
    83   80   87 1   
    84   81   82 2   
    85   81   93 1   
    86   83   84 1   
    87   83   85 1   
    88   83   88 1   
    89   84   90 1   
    90   84   91 1   
    91   84   92 1   
    92   85   89 1   
    93   93   94 1   
    94   93  101 1   
    95   94   95 1   
    96   94   97 1   
    97   94  102 1   
    98   95   96 2   
    99   95  112 1   
   100   97   98 1   
   101   97   99 1   
   102   97  103 1   
   103   98  100 1   
   104   98  104 1   
   105   98  105 1   
   106   99  106 1   
   107   99  107 1   
   108   99  108 1   
   109  100  109 1   
   110  100  110 1   
   111  100  111 1   
   112  112  113 1   
   113  112  119 1   
   114  113  114 1   
   115  113  116 1   
   116  113  120 1   
   117  114  115 2   
   118  114  126 1   
   119  116  117 1   
   120  116  118 1   
   121  116  121 1   
   122  117  123 1   
   123  117  124 1   
   124  117  125 1   
   125  118  122 1   
   126  126  127 1   
   127  126  133 1   
   128  127  128 1   
   129  127  130 1   
   130  127  134 1   
   131  128  129 2   
   132  128  140 1   
   133  130  131 1   
   134  130  132 1   
   135  130  135 1   
   136  131  137 1   
   137  131  138 1   
   138  131  139 1   
   139  132  136 1   
   140  140  141 1   
   141  140  149 1   
   142  141  142 1   
   143  141  144 1   
   144  141  150 1   
   145  142  143 2   
   146  142  162 1   
   147  144  145 1   
   148  144  151 1   
   149  144  152 1   
   150  145  146 1   
   151  145  153 1   
   152  145  154 1   
   153  146  147 1   
   154  146  155 1   
   155  146  156 1   
   156  147  148 1   
   157  147  157 1   
   158  147  158 1   
   159  148  159 1   
   160  148  160 1   
   161  148  161 1   
   162  162  163 1   
   163  162  171 1   
   164  163  164 1   
   165  163  166 1   
   166  163  172 1   
   167  164  165 2   
   168  164  177 1   
   169  166  167 1   
   170  166  173 1   
   171  166  174 1   
   172  167  168 1   
   173  167  175 1   
   174  167  176 1   
   175  168  169 1   
   176  168  170 1   
   177  177  178 1   
   178  177  182 1   
   179  178  179 1   
   180  178  180 1   
   181  178  181 1   
   182  184  185 1   
   183  184  186 1   
   184  187  188 1   
   185  187  189 1   
   186  190  191 1   
   187  190  192 1   
   188  193  194 1   
   189  193  195 1   
@<TRIPOS>SUBSTRUCTURE
     1 MOL         1 TEMP              0 ****  ****    0 ROOT
