@<TRIPOS>MOLECULE
MOL
  189   185     1     0     0
SMALL
resp


@<TRIPOS>ATOM
      1 C1         12.1890    4.2930   -3.7850 c3        1 MOL     -0.290514
      2 C2         12.0150    3.1970   -2.7970 c         1 MOL      0.550927
      3 O1         12.9020    2.3050   -2.7220 o         1 MOL     -0.564457
      4 H1         12.9340    4.9980   -3.4160 hc        1 MOL      0.085565
      5 H2         12.5240    3.8770   -4.7350 hc        1 MOL      0.085565
      6 H3         11.2390    4.8090   -3.9280 hc        1 MOL      0.085565
      7 N1         11.0390    3.2780   -1.9290 n         1 MOL     -0.033803
      8 C3         10.7790    2.2740   -0.9070 c3        1 MOL     -0.490933
      9 C4          9.3360    1.6510   -0.8880 c         1 MOL      0.662037
     10 O2          8.3310    2.4070   -0.9710 o         1 MOL     -0.621199
     11 C5         11.1650    2.8780    0.4730 c3        1 MOL      0.209984
     12 C6         10.8970    4.3470    0.7240 c         1 MOL      0.494039
     13 O3          9.8420    4.9370    0.2880 o         1 MOL     -0.645056
     14 O4         11.7550    4.9410    1.5000 o         1 MOL     -0.645056
     15 H4         10.4190    4.0730   -1.9380 hn        1 MOL      0.099709
     16 H5         11.4440    1.4400   -1.1410 h1        1 MOL      0.107130
     17 H6         12.2520    2.8020    0.5790 hc        1 MOL      0.004655
     18 H7         10.8490    2.1700    1.2400 hc        1 MOL      0.004655
     19 N2          9.2320    0.3200   -0.7760 n         1 MOL     -0.397109
     20 C7          7.9300   -0.4340   -0.8940 c3        1 MOL     -0.215224
     21 C8          6.7880    0.0430    0.0110 c         1 MOL      0.515823
     22 O5          6.8130    0.2540    1.2000 o         1 MOL     -0.536030
     23 C9          8.1510   -2.0430   -0.9300 c3        1 MOL     -0.420426
     24 C10         8.4780   -2.6530    0.4500 c3        1 MOL      0.231847
     25 C11         9.1080   -4.0480    0.3940 c3        1 MOL     -0.156008
     26 C12         9.5110   -4.5610    1.7620 c3        1 MOL      0.185959
     27 N3         10.2870   -5.7410    1.6600 n4        1 MOL     -0.216968
     28 H8         10.0960   -0.1100   -0.4950 hn        1 MOL      0.335697
     29 H9          7.5440   -0.0800   -1.8520 h1        1 MOL      0.194598
     30 H10         8.8840   -2.3090   -1.6840 hc        1 MOL      0.165413
     31 H11         7.2270   -2.5410   -1.2230 hc        1 MOL      0.165413
     32 H12         7.5820   -2.5980    1.0680 hc        1 MOL      0.001562
     33 H13         9.1380   -1.9850    0.9830 hc        1 MOL      0.001562
     34 H14        10.0680   -3.9530   -0.1230 hc        1 MOL      0.042258
     35 H15         8.3940   -4.7510   -0.0410 hc        1 MOL      0.042258
     36 H16         8.6430   -4.7980    2.3810 hx        1 MOL      0.034009
     37 H17        10.0210   -3.7790    2.3250 hx        1 MOL      0.034009
     38 H18         9.8080   -6.3740    1.0350 hn        1 MOL      0.241531
     39 H19        11.1800   -5.5690    1.2250 hn        1 MOL      0.241531
     40 H20        10.5140   -6.1060    2.5760 hn        1 MOL      0.241531
     41 N4          5.6070   -0.0730   -0.6480 n         1 MOL     -0.325894
     42 C13         4.2430    0.0870   -0.0650 c3        1 MOL      0.282490
     43 C14         3.2800   -0.7980   -0.7870 c         1 MOL      0.250250
     44 O6          3.3940   -1.0180   -2.0100 o         1 MOL     -0.509286
     45 C15         3.8820    1.5530   -0.1040 c3        1 MOL     -0.013335
     46 C16         4.8850    2.6520   -0.0130 c         1 MOL      0.704140
     47 O7          5.4020    3.1930   -1.0110 o         1 MOL     -0.791348
     48 O8          5.1960    3.0900    1.1040 o         1 MOL     -0.791348
     49 H21         5.6880   -0.2880   -1.6320 hn        1 MOL      0.211146
     50 H22         4.2120   -0.2000    0.9830 h1        1 MOL      0.047311
     51 H23         3.1940    1.7220    0.7260 hc        1 MOL      0.016936
     52 H24         3.4250    1.8060   -1.0630 hc        1 MOL      0.016936
     53 N5          2.2220   -1.3750   -0.1220 n         1 MOL     -0.189663
     54 C17         1.9110   -1.3450    1.2930 c3        1 MOL     -0.315888
     55 C18         1.8570   -2.7660    1.8920 c         1 MOL      0.678434
     56 O9          2.1700   -3.7170    1.1710 o         1 MOL     -0.563285
     57 H25         1.6750   -1.9710   -0.7180 hn        1 MOL      0.217765
     58 H26         0.9600   -0.8290    1.4280 h1        1 MOL      0.125055
     59 H27         2.6520   -0.8590    1.9250 h1        1 MOL      0.125055
     60 N6          1.3580   -2.8080    3.1170 n         1 MOL     -0.476042
     61 C19         1.1910   -4.0090    3.8640 c3        1 MOL      0.081123
     62 C20         0.0160   -4.7610    3.2240 c         1 MOL      0.566520
     63 O10        -1.1600   -4.4440    3.2300 o         1 MOL     -0.528967
     64 C21         0.9400   -3.8050    5.3360 c3        1 MOL     -0.198456
     65 C22         1.1800   -5.1440    6.1060 c         1 MOL      0.664816
     66 O11         0.7610   -5.1740    7.3010 o         1 MOL     -0.639926
     67 O12         1.6380   -6.1770    5.5890 o         1 MOL     -0.639926
     68 H28         1.1620   -1.9490    3.6090 hn        1 MOL      0.308411
     69 H29         2.1360   -4.5530    3.8020 h1        1 MOL      0.018936
     70 H30        -0.0630   -3.4230    5.5300 hc        1 MOL      0.055341
     71 H31         1.5980   -3.0150    5.6790 hc        1 MOL      0.055341
     72 N7          0.4150   -5.8090    2.4460 n         1 MOL     -0.319180
     73 C23        -0.5000   -6.5780    1.6680 c3        1 MOL     -0.130461
     74 C24        -0.8310   -6.0810    0.2220 c         1 MOL      0.486398
     75 O13        -1.5680   -6.7750   -0.4830 o         1 MOL     -0.559351
     76 H32         1.3610   -6.1430    2.4660 hn        1 MOL      0.242269
     77 H33        -1.4000   -6.7660    2.2420 h1        1 MOL      0.104257
     78 H34        -0.1030   -7.5850    1.5370 h1        1 MOL      0.104257
     79 N8         -0.2580   -4.9120   -0.1300 n         1 MOL     -0.195657
     80 C25        -0.3920   -4.2190   -1.4340 c3        1 MOL      0.030460
     81 C26        -0.8140   -2.7580   -1.2630 c         1 MOL      0.244760
     82 O14        -0.6500   -2.1190   -0.2030 o         1 MOL     -0.463826
     83 C27         0.8830   -4.2870   -2.2280 c3        1 MOL      0.244658
     84 C28         0.9220   -5.6590   -2.9220 c3        1 MOL     -0.499123
     85 O15         0.8760   -3.4260   -3.3290 oh        1 MOL     -0.640480
     86 H35         0.4090   -4.5330    0.5250 hn        1 MOL      0.124197
     87 H36        -1.1560   -4.5850   -2.1100 h1        1 MOL      0.078964
     88 H37         1.7690   -4.1290   -1.6170 h1        1 MOL      0.071923
     89 H38         1.7420   -3.3360   -3.7320 ho        1 MOL      0.430672
     90 H39         0.5840   -6.3900   -2.1870 hc        1 MOL      0.127745
     91 H40         0.2290   -5.7050   -3.7610 hc        1 MOL      0.127745
     92 H41         1.9430   -5.8230   -3.2670 hc        1 MOL      0.127745
     93 N9         -1.3400   -2.1440   -2.3440 n         1 MOL      0.105553
     94 C29        -1.8760   -0.7310   -2.2690 c3        1 MOL     -0.283098
     95 C30        -3.3860   -0.8190   -1.8380 c         1 MOL      0.583397
     96 O16        -3.8340   -0.0350   -1.0240 o         1 MOL     -0.528809
     97 C31        -1.8300   -0.0810   -3.6470 c3        1 MOL      0.336022
     98 C32        -0.6150   -0.1250   -4.5350 c3        1 MOL     -0.148706
     99 C33        -2.2620    1.4190   -3.4960 c3        1 MOL     -0.437687
    100 C34         0.6190    0.2790   -3.7040 c3        1 MOL     -0.004775
    101 H42        -1.5380   -2.6750   -3.1730 hn        1 MOL      0.173805
    102 H43        -1.2640   -0.1600   -1.5690 h1        1 MOL      0.128275
    103 H44        -2.5910   -0.5790   -4.2450 hc        1 MOL     -0.079179
    104 H45        -0.7390    0.5410   -5.3940 hc        1 MOL      0.019556
    105 H46        -0.4590   -1.1760   -4.7450 hc        1 MOL      0.019556
    106 H47        -3.2920    1.4980   -3.1720 hc        1 MOL      0.114560
    107 H48        -1.5430    2.1050   -3.0390 hc        1 MOL      0.114560
    108 H49        -2.3610    1.8060   -4.5110 hc        1 MOL      0.114560
    109 H50         0.7040   -0.4010   -2.8470 hc        1 MOL      0.010050
    110 H51         1.5010    0.1140   -4.3170 hc        1 MOL      0.010050
    111 H52         0.5020    1.2770   -3.2860 hc        1 MOL      0.010050
    112 N10        -4.0200   -1.8890   -2.2920 n         1 MOL     -0.295736
    113 C35        -5.4040   -2.3130   -1.8950 c3        1 MOL     -0.222522
    114 C36        -6.5720   -1.8760   -2.7990 c         1 MOL      0.607793
    115 O17        -6.4430   -1.9830   -4.0060 o         1 MOL     -0.536758
    116 C37        -5.5140   -3.8100   -1.7320 c3        1 MOL      0.381388
    117 C38        -4.2800   -4.3310   -0.9550 c3        1 MOL     -0.457412
    118 O18        -6.6230   -4.1620   -1.0070 oh        1 MOL     -0.650226
    119 H53        -3.5360   -2.5140   -2.9250 hn        1 MOL      0.208545
    120 H54        -5.6010   -1.9200   -0.8910 h1        1 MOL      0.134870
    121 H55        -5.5210   -4.3060   -2.7040 h1        1 MOL      0.007681
    122 H56        -6.5990   -5.1080   -0.8570 ho        1 MOL      0.421993
    123 H57        -4.3700   -5.3510   -0.5740 hc        1 MOL      0.129181
    124 H58        -3.3540   -4.3430   -1.5350 hc        1 MOL      0.129181
    125 H59        -4.0520   -3.6250   -0.1550 hc        1 MOL      0.129181
    126 N11        -7.6250   -1.3530   -2.1880 n         1 MOL     -0.455680
    127 C39        -8.9100   -0.9700   -2.8060 c3        1 MOL      0.038630
    128 C40        -9.3920    0.3960   -2.3500 c         1 MOL      0.433401
    129 O19       -10.0900    1.0910   -3.0730 o         1 MOL     -0.551000
    130 C41       -10.1210   -1.9670   -2.4550 c3        1 MOL      0.234494
    131 C42       -10.4820   -2.1660   -0.9270 c3        1 MOL     -0.022317
    132 O20        -9.9330   -3.2200   -3.0880 oh        1 MOL     -0.601905
    133 H60        -7.5790   -1.3190   -1.1730 hn        1 MOL      0.326008
    134 H61        -8.8510   -0.9010   -3.8930 h1        1 MOL      0.108572
    135 H62       -11.0610   -1.6110   -2.8820 h1        1 MOL     -0.001658
    136 H63       -10.1400   -3.1500   -4.0210 ho        1 MOL      0.400013
    137 H64       -11.0720   -3.0610   -0.7350 hc        1 MOL      0.019375
    138 H65        -9.6050   -2.2970   -0.2750 hc        1 MOL      0.019375
    139 H66       -11.0170   -1.3150   -0.5230 hc        1 MOL      0.019375
    140 N12        -8.9010    0.9060   -1.2280 n         1 MOL     -0.182314
    141 C43        -9.0940    2.2950   -0.7720 c3        1 MOL     -0.002143
    142 C44        -7.9270    2.7720    0.1190 c         1 MOL      0.408532
    143 O21        -7.0410    2.0260    0.4960 o         1 MOL     -0.453565
    144 C45       -10.3450    2.1920    0.0690 c3        1 MOL     -0.080489
    145 C46       -10.1420    1.2500    1.3160 c3        1 MOL     -0.102279
    146 C47       -11.3160    1.3290    2.2710 c3        1 MOL     -0.251925
    147 C48       -11.0190    0.5530    3.5570 c3        1 MOL      0.030516
    148 N13       -12.1470    0.7170    4.5150 n4        1 MOL     -0.175998
    149 H67        -8.2440    0.3730   -0.6780 hn        1 MOL      0.095128
    150 H68        -9.3060    2.9830   -1.5890 h1        1 MOL      0.118915
    151 H69       -11.2190    1.9710   -0.5310 hc        1 MOL      0.046089
    152 H70       -10.5290    3.1520    0.5570 hc        1 MOL      0.046089
    153 H71        -9.3380    1.7800    1.8450 hc        1 MOL      0.084357
    154 H72        -9.8900    0.2050    1.1140 hc        1 MOL      0.084357
    155 H73       -12.0890    0.8190    1.7020 hc        1 MOL      0.102064
    156 H74       -11.4770    2.3700    2.5950 hc        1 MOL      0.102064
    157 H75       -10.1460    1.0190    4.0240 hx        1 MOL      0.089372
    158 H76       -10.9280   -0.5090    3.3360 hx        1 MOL      0.089372
    159 H77       -13.0000    0.3980    4.0810 hn        1 MOL      0.226566
    160 H78       -11.9460    0.2690    5.3950 hn        1 MOL      0.226566
    161 H79       -12.2320    1.7040    4.7170 hn        1 MOL      0.226566
    162 N14        -7.9760    4.1000    0.4310 n         1 MOL     -0.370108
    163 C49        -7.2170    4.8880    1.3960 c3        1 MOL      0.202324
    164 C50        -5.6650    4.6230    1.4120 c         1 MOL      0.315050
    165 O22        -5.1980    4.5320    2.5430 o         1 MOL     -0.523537
    166 C51        -7.5800    6.3760    1.2450 c3        1 MOL     -0.073781
    167 C52        -6.8270    7.2470    2.2730 c3        1 MOL     -0.227950
    168 C53        -7.3720    8.6650    2.3750 c         1 MOL      0.726966
    169 O23        -8.3950    8.8990    3.0620 o         1 MOL     -0.662638
    170 O24        -6.8250    9.6030    1.7310 o         1 MOL     -0.662638
    171 H80        -8.5830    4.7240   -0.0840 hn        1 MOL      0.212470
    172 H81        -7.5370    4.6860    2.4120 h1        1 MOL      0.051494
    173 H82        -8.6540    6.5350    1.3370 hc        1 MOL      0.036256
    174 H83        -7.2900    6.7530    0.2630 hc        1 MOL      0.036256
    175 H84        -5.7400    7.1550    2.2920 hc        1 MOL      0.051473
    176 H85        -7.1450    6.7720    3.2000 hc        1 MOL      0.051473
    177 N15        -4.9100    4.4620    0.3360 n         1 MOL     -0.211574
    178 C54        -5.2230    4.7200   -1.0420 c3        1 MOL      0.041652
    179 H86        -4.4880    5.4090   -1.4590 h1        1 MOL      0.022614
    180 H87        -5.2020    3.7850   -1.6020 h1        1 MOL      0.022614
    181 H88        -6.2160    5.1640   -1.1120 h1        1 MOL      0.022614
    182 H89        -3.9590    4.2130    0.5590 hn        1 MOL      0.257892
    183 Ca1         7.2130    4.6860    0.1450 Ca        1 MOL      1.756452
    184 O25         8.2500    2.9730    1.9860 oh        1 MOL     -0.898053
    185 H90         8.1090    3.1190    2.9280 ho        1 MOL      0.442161
    186 H91         8.3980    2.0300    1.9170 ho        1 MOL      0.442161
    187 O26         8.1160    5.8680    2.4040 oh        1 MOL     -0.898053
    188 H92         9.0110    5.6940    2.1100 ho        1 MOL      0.442161
    189 H93         8.1550    5.7680    3.3560 ho        1 MOL      0.442161
@<TRIPOS>BOND
     1    1    2 1   
     2    1    4 1   
     3    1    5 1   
     4    1    6 1   
     5    2    3 2   
     6    2    7 1   
     7    7    8 1   
     8    7   15 1   
     9    8    9 1   
    10    8   11 1   
    11    8   16 1   
    12    9   10 2   
    13    9   19 1   
    14   11   12 1   
    15   11   17 1   
    16   11   18 1   
    17   12   13 1   
    18   12   14 1   
    19   19   20 1   
    20   19   28 1   
    21   20   21 1   
    22   20   23 1   
    23   20   29 1   
    24   21   22 2   
    25   21   41 1   
    26   23   24 1   
    27   23   30 1   
    28   23   31 1   
    29   24   25 1   
    30   24   32 1   
    31   24   33 1   
    32   25   26 1   
    33   25   34 1   
    34   25   35 1   
    35   26   27 1   
    36   26   36 1   
    37   26   37 1   
    38   27   38 1   
    39   27   39 1   
    40   27   40 1   
    41   41   42 1   
    42   41   49 1   
    43   42   43 1   
    44   42   45 1   
    45   42   50 1   
    46   43   44 2   
    47   43   53 1   
    48   45   46 1   
    49   45   51 1   
    50   45   52 1   
    51   46   47 1   
    52   46   48 1   
    53   53   54 1   
    54   53   57 1   
    55   54   55 1   
    56   54   58 1   
    57   54   59 1   
    58   55   56 2   
    59   55   60 1   
    60   60   61 1   
    61   60   68 1   
    62   61   62 1   
    63   61   64 1   
    64   61   69 1   
    65   62   63 2   
    66   62   72 1   
    67   64   65 1   
    68   64   70 1   
    69   64   71 1   
    70   65   66 1   
    71   65   67 1   
    72   72   73 1   
    73   72   76 1   
    74   73   74 1   
    75   73   77 1   
    76   73   78 1   
    77   74   75 2   
    78   74   79 1   
    79   79   80 1   
    80   79   86 1   
    81   80   81 1   
    82   80   83 1   
    83   80   87 1   
    84   81   82 2   
    85   81   93 1   
    86   83   84 1   
    87   83   85 1   
    88   83   88 1   
    89   84   90 1   
    90   84   91 1   
    91   84   92 1   
    92   85   89 1   
    93   93   94 1   
    94   93  101 1   
    95   94   95 1   
    96   94   97 1   
    97   94  102 1   
    98   95   96 2   
    99   95  112 1   
   100   97   98 1   
   101   97   99 1   
   102   97  103 1   
   103   98  100 1   
   104   98  104 1   
   105   98  105 1   
   106   99  106 1   
   107   99  107 1   
   108   99  108 1   
   109  100  109 1   
   110  100  110 1   
   111  100  111 1   
   112  112  113 1   
   113  112  119 1   
   114  113  114 1   
   115  113  116 1   
   116  113  120 1   
   117  114  115 2   
   118  114  126 1   
   119  116  117 1   
   120  116  118 1   
   121  116  121 1   
   122  117  123 1   
   123  117  124 1   
   124  117  125 1   
   125  118  122 1   
   126  126  127 1   
   127  126  133 1   
   128  127  128 1   
   129  127  130 1   
   130  127  134 1   
   131  128  129 2   
   132  128  140 1   
   133  130  131 1   
   134  130  132 1   
   135  130  135 1   
   136  131  137 1   
   137  131  138 1   
   138  131  139 1   
   139  132  136 1   
   140  140  141 1   
   141  140  149 1   
   142  141  142 1   
   143  141  144 1   
   144  141  150 1   
   145  142  143 2   
   146  142  162 1   
   147  144  145 1   
   148  144  151 1   
   149  144  152 1   
   150  145  146 1   
   151  145  153 1   
   152  145  154 1   
   153  146  147 1   
   154  146  155 1   
   155  146  156 1   
   156  147  148 1   
   157  147  157 1   
   158  147  158 1   
   159  148  159 1   
   160  148  160 1   
   161  148  161 1   
   162  162  163 1   
   163  162  171 1   
   164  163  164 1   
   165  163  166 1   
   166  163  172 1   
   167  164  165 2   
   168  164  177 1   
   169  166  167 1   
   170  166  173 1   
   171  166  174 1   
   172  167  168 1   
   173  167  175 1   
   174  167  176 1   
   175  168  169 1   
   176  168  170 1   
   177  177  178 1   
   178  177  182 1   
   179  178  179 1   
   180  178  180 1   
   181  178  181 1   
   182  184  185 1   
   183  184  186 1   
   184  187  188 1   
   185  187  189 1   
@<TRIPOS>SUBSTRUCTURE
     1 MOL         1 TEMP              0 ****  ****    0 ROOT
