@<TRIPOS>MOLECULE
MOL
  192   187     1     0     0
SMALL
resp


@<TRIPOS>ATOM
      1 C1          4.7230    0.2400   -5.0640 c3        1 MOL     -0.516482
      2 C2          5.2910   -0.1260   -3.7010 c         1 MOL      0.601204
      3 O1          4.5180   -0.5180   -2.8080 o         1 MOL     -0.470617
      4 H1          5.0020   -0.5230   -5.7900 hc        1 MOL      0.143372
      5 H2          3.6360    0.3010   -5.0010 hc        1 MOL      0.143372
      6 H3          5.1220    1.2040   -5.3780 hc        1 MOL      0.143372
      7 N1          6.6370    0.0000   -3.5060 n         1 MOL     -0.383424
      8 C3          7.2390   -0.1230   -2.1820 c3        1 MOL     -0.068340
      9 C4          6.8870    0.9740   -1.1790 c         1 MOL      0.635363
     10 O2          6.9140    0.6740    0.0430 o         1 MOL     -0.576746
     11 C5          8.7230   -0.3120   -2.3280 c3        1 MOL     -0.233301
     12 C6          8.9430   -1.5840   -3.2610 c         1 MOL      0.706106
     13 O3          8.5210   -2.7390   -2.9260 o         1 MOL     -0.654063
     14 O4          9.5230   -1.4050   -4.3110 o         1 MOL     -0.654063
     15 H4          7.1820    0.3650   -4.2620 hn        1 MOL      0.284864
     16 H5          6.8410   -1.0320   -1.7180 h1        1 MOL      0.087234
     17 H6          9.2470   -0.5250   -1.3940 hc        1 MOL      0.057249
     18 H7          9.2700    0.5410   -2.7440 hc        1 MOL      0.057249
     19 N2          6.4770    2.1900   -1.5320 n         1 MOL     -0.698441
     20 C7          6.1380    3.2390   -0.4730 c3        1 MOL      0.595287
     21 C8          4.6110    3.8160   -0.3440 c         1 MOL      0.288545
     22 O5          4.4680    4.9610    0.0420 o         1 MOL     -0.518911
     23 C9          7.1450    4.4480   -0.5930 c3        1 MOL     -0.264894
     24 C10         7.5070    4.9410    0.8420 c3        1 MOL      0.141265
     25 C11         8.4460    6.2060    0.8180 c3        1 MOL     -0.206398
     26 C12         8.9600    6.6980    2.1720 c3        1 MOL      0.158085
     27 N3          9.7600    7.9540    2.0950 n4        1 MOL     -0.332369
     28 H8          6.1200    2.2340   -2.4750 hn        1 MOL      0.283297
     29 H9          6.2890    2.8260    0.5220 h1        1 MOL     -0.016286
     30 H10         6.7460    5.2420   -1.2310 hc        1 MOL      0.048503
     31 H11         8.1250    4.1200   -0.9230 hc        1 MOL      0.048503
     32 H12         7.9490    4.1240    1.4130 hc        1 MOL      0.010134
     33 H13         6.6140    5.2850    1.3670 hc        1 MOL      0.010134
     34 H14         7.8220    6.9780    0.3800 hc        1 MOL      0.066306
     35 H15         9.3080    5.9470    0.2020 hc        1 MOL      0.066306
     36 H16         9.6220    5.9830    2.6530 hx        1 MOL      0.054195
     37 H17         8.0900    6.7910    2.8190 hx        1 MOL      0.054195
     38 H18        10.5720    7.7230    1.5430 hn        1 MOL      0.300022
     39 H19         9.3040    8.7160    1.6170 hn        1 MOL      0.300022
     40 H20         9.9850    8.3630    3.0020 hn        1 MOL      0.300022
     41 N4          3.4990    3.1930   -0.6320 n         1 MOL     -0.429735
     42 C13         3.1820    1.7940   -0.9620 c3        1 MOL      0.224726
     43 C14         3.5290    0.8990    0.2460 c         1 MOL      0.432008
     44 O6          3.4730    1.2770    1.4120 o         1 MOL     -0.528127
     45 C15         1.7590    1.6150   -1.5020 c3        1 MOL     -0.397009
     46 C16         0.7010    2.2910   -0.6690 c         1 MOL      0.744570
     47 O7         -0.1370    1.5950   -0.0340 o         1 MOL     -0.664474
     48 O8          0.6660    3.5180   -0.5860 o         1 MOL     -0.664474
     49 H21         2.6910    3.7800   -0.4820 hn        1 MOL      0.334115
     50 H22         3.9200    1.5490   -1.7270 h1        1 MOL      0.008015
     51 H23         1.6380    0.5380   -1.6320 hc        1 MOL      0.063898
     52 H24         1.7410    2.1190   -2.4740 hc        1 MOL      0.063898
     53 N5          3.8530   -0.3130   -0.0270 n         1 MOL     -0.026882
     54 C17         3.9340   -1.4420    0.9740 c3        1 MOL     -0.551418
     55 C18         2.8000   -1.8080    1.9510 c         1 MOL      0.753961
     56 O9          1.6460   -1.3290    1.7690 o         1 MOL     -0.615320
     57 H25         3.9280   -0.5160   -1.0190 hn        1 MOL      0.189615
     58 H26         4.7930   -1.1740    1.6060 h1        1 MOL      0.186897
     59 H27         4.2750   -2.2910    0.3770 h1        1 MOL      0.186897
     60 N6          3.1020   -2.4220    3.1090 n         1 MOL     -0.558158
     61 C19         2.1410   -2.9330    4.0840 c3        1 MOL      0.327814
     62 C20         2.6370   -4.1830    4.7060 c         1 MOL      0.357592
     63 O10         3.8170   -4.1950    5.0790 o         1 MOL     -0.527956
     64 C21         1.6930   -1.9360    5.1830 c3        1 MOL     -0.202823
     65 C22         0.9750   -0.6440    4.6540 c         1 MOL      0.700702
     66 O11        -0.1670   -0.6730    4.1830 o         1 MOL     -0.676343
     67 O12         1.6010    0.4020    4.9490 o         1 MOL     -0.676343
     68 H28         4.0320   -2.7470    3.3180 hn        1 MOL      0.309721
     69 H29         1.2360   -3.1640    3.5260 h1        1 MOL     -0.056704
     70 H30         2.5310   -1.7800    5.8640 hc        1 MOL      0.057635
     71 H31         0.9840   -2.5020    5.7790 hc        1 MOL      0.057635
     72 N7          1.8150   -5.1920    4.9390 n         1 MOL     -0.299326
     73 C23         0.3370   -5.2980    4.7410 c3        1 MOL     -0.179739
     74 C24        -0.1300   -5.3970    3.3010 c         1 MOL      0.571848
     75 O13         0.6500   -5.6610    2.3290 o         1 MOL     -0.492043
     76 H32         2.2980   -5.9740    5.3560 hn        1 MOL      0.280789
     77 H33        -0.1140   -4.4780    5.3090 h1        1 MOL      0.099609
     78 H34         0.0500   -6.2680    5.1350 h1        1 MOL      0.099609
     79 N8         -1.4290   -5.0570    3.1120 n         1 MOL     -0.461402
     80 C25        -1.9570   -5.0010    1.7180 c3        1 MOL      0.005801
     81 C26        -1.2420   -3.9110    0.9970 c         1 MOL      0.579218
     82 O14        -0.9310   -2.8290    1.5170 o         1 MOL     -0.591303
     83 C27        -3.4360   -4.8500    1.6600 c3        1 MOL      0.276229
     84 C28        -4.1310   -3.7350    2.3150 c3        1 MOL     -0.240303
     85 O15        -3.9700   -6.0110    2.2810 oh        1 MOL     -0.644178
     86 H35        -2.0340   -4.8190    3.8770 hn        1 MOL      0.322678
     87 H36        -1.6360   -5.9310    1.2590 h1        1 MOL      0.108070
     88 H37        -3.7290   -4.9150    0.6090 h1        1 MOL      0.006374
     89 H38        -4.9150   -5.9800    2.1480 ho        1 MOL      0.405714
     90 H39        -3.5680   -2.8060    2.1980 hc        1 MOL      0.069401
     91 H40        -5.1420   -3.6230    1.9430 hc        1 MOL      0.069401
     92 H41        -4.2110   -3.9510    3.3800 hc        1 MOL      0.069401
     93 N9         -0.8540   -4.2720   -0.2600 n         1 MOL     -0.496129
     94 C29        -0.0240   -3.5770   -1.1750 c3        1 MOL      0.084759
     95 C30        -0.3440   -2.1170   -1.3460 c         1 MOL      0.184366
     96 O16        -0.0040   -1.2330   -0.4890 o         1 MOL     -0.396234
     97 C31         1.4440   -3.9980   -0.9060 c3        1 MOL     -0.195690
     98 C32         1.7180   -5.5600   -0.9420 c3        1 MOL      0.191235
     99 C33         2.4180   -3.1820   -1.7890 c3        1 MOL     -0.370489
    100 C34         3.1670   -5.9660   -0.7560 c3        1 MOL     -0.361933
    101 H42        -0.9800   -5.2030   -0.6140 hn        1 MOL      0.269682
    102 H43        -0.3710   -4.0150   -2.1140 h1        1 MOL      0.047640
    103 H44         1.6940   -3.6710    0.1100 hc        1 MOL      0.208880
    104 H45         1.3810   -6.0700   -1.8420 hc        1 MOL     -0.011305
    105 H46         1.1340   -5.9910   -0.1310 hc        1 MOL     -0.011305
    106 H47         2.3010   -3.3670   -2.8560 hc        1 MOL      0.122016
    107 H48         2.4080   -2.1110   -1.5700 hc        1 MOL      0.122016
    108 H49         3.4350   -3.4360   -1.4820 hc        1 MOL      0.122016
    109 H50         3.4970   -5.3720    0.0920 hc        1 MOL      0.101043
    110 H51         3.1340   -7.0310   -0.5310 hc        1 MOL      0.101043
    111 H52         3.6470   -5.7670   -1.7240 hc        1 MOL      0.101043
    112 N10        -0.8110   -1.7970   -2.5830 n         1 MOL     -0.099881
    113 C35        -0.8650   -0.4310   -3.0350 c3        1 MOL     -0.408237
    114 C36        -2.2710    0.0110   -3.5240 c         1 MOL      0.594818
    115 O17        -2.5390    1.1800   -3.7380 o         1 MOL     -0.521016
    116 C37         0.2080   -0.2140   -4.1720 c3        1 MOL      0.543575
    117 C38        -0.3270   -0.6460   -5.4810 c3        1 MOL     -0.494981
    118 O18         1.3860   -0.9340   -3.9660 oh        1 MOL     -0.580912
    119 H53        -0.9400   -2.4980   -3.2930 hn        1 MOL      0.229247
    120 H54        -0.6390    0.2120   -2.1870 h1        1 MOL      0.173331
    121 H55         0.4200    0.8510   -4.2350 h1        1 MOL      0.036309
    122 H56         1.1780   -1.6380   -3.3550 ho        1 MOL      0.327652
    123 H57        -0.6900   -1.6730   -5.4090 hc        1 MOL      0.111587
    124 H58        -1.1050    0.0640   -5.7830 hc        1 MOL      0.111587
    125 H59         0.4770   -0.5630   -6.2060 hc        1 MOL      0.111587
    126 N11        -3.2210   -0.9760   -3.5920 n         1 MOL     -0.176942
    127 C39        -4.6830   -0.8000   -3.8950 c3        1 MOL     -0.408435
    128 C40        -5.4960   -0.2110   -2.7320 c         1 MOL      0.598383
    129 O19        -5.7290   -0.9610   -1.7580 o         1 MOL     -0.552568
    130 C41        -5.3580   -1.9820   -4.5520 c3        1 MOL      0.567775
    131 C42        -4.7880   -2.4780   -5.8630 c3        1 MOL     -0.223910
    132 O20        -5.4260   -3.0780   -3.7650 oh        1 MOL     -0.634752
    133 H60        -2.9250   -1.8880   -3.2610 hn        1 MOL      0.229727
    134 H61        -4.6690    0.0150   -4.6210 h1        1 MOL      0.104981
    135 H62        -6.3630   -1.6210   -4.7810 h1        1 MOL     -0.045860
    136 H63        -6.2970   -3.4840   -3.7440 ho        1 MOL      0.400653
    137 H64        -5.5010   -3.2700   -6.0990 hc        1 MOL      0.038561
    138 H65        -5.0760   -1.7020   -6.5700 hc        1 MOL      0.038561
    139 H66        -3.7210   -2.6900   -5.8590 hc        1 MOL      0.038561
    140 N12        -5.7810    1.0850   -2.6570 n         1 MOL     -0.552023
    141 C43        -6.3760    1.7880   -1.4380 c3        1 MOL      0.492842
    142 C44        -5.4980    1.7510   -0.1930 c         1 MOL      0.255681
    143 O21        -4.6760    0.8060    0.0210 o         1 MOL     -0.382544
    144 C45        -7.8360    1.3230   -1.1630 c3        1 MOL     -0.773931
    145 C46        -8.8070    1.4610   -2.3500 c3        1 MOL      0.244826
    146 C47       -10.2180    2.0470   -1.8340 c3        1 MOL     -0.116661
    147 C48       -11.0340    2.5040   -3.0470 c3        1 MOL      0.169760
    148 N13       -12.3230    3.0690   -2.5640 n4        1 MOL     -0.236964
    149 H67        -5.5990    1.6270   -3.4880 hn        1 MOL      0.302782
    150 H68        -6.3990    2.8550   -1.6710 h1        1 MOL     -0.001285
    151 H69        -8.1930    1.8830   -0.2990 hc        1 MOL      0.229890
    152 H70        -7.8080    0.2620   -0.8970 hc        1 MOL      0.229890
    153 H71        -8.8600    0.4840   -2.8210 hc        1 MOL      0.005475
    154 H72        -8.3750    2.1640   -3.0600 hc        1 MOL      0.005475
    155 H73       -10.1360    2.8660   -1.1190 hc        1 MOL      0.045721
    156 H74       -10.8170    1.2250   -1.4610 hc        1 MOL      0.045721
    157 H75       -11.1520    1.6410   -3.6900 hx        1 MOL      0.009144
    158 H76       -10.5290    3.2870   -3.6130 hx        1 MOL      0.009144
    159 H77       -12.7840    2.3580   -2.0210 hn        1 MOL      0.221963
    160 H78       -12.0740    3.8630   -1.9830 hn        1 MOL      0.221963
    161 H79       -12.7640    3.4570   -3.3890 hn        1 MOL      0.221963
    162 N14        -5.5800    2.7590    0.7090 n         1 MOL     -0.420864
    163 C49        -4.7430    2.8500    1.9360 c3        1 MOL      0.301829
    164 C50        -3.2460    2.9310    1.5800 c         1 MOL      0.247738
    165 O22        -2.4770    2.0910    1.9590 o         1 MOL     -0.497164
    166 C51        -5.1740    4.0520    2.8610 c3        1 MOL      0.001823
    167 C52        -6.4050    3.7450    3.6990 c3        1 MOL     -0.303201
    168 C53        -6.8590    5.0430    4.3620 c         1 MOL      0.719853
    169 O23        -6.3570    5.4920    5.4430 o         1 MOL     -0.652133
    170 O24        -7.6950    5.7210    3.7490 o         1 MOL     -0.652133
    171 H80        -6.3460    3.4080    0.5830 hn        1 MOL      0.258070
    172 H81        -4.9570    1.9440    2.5000 h1        1 MOL      0.042576
    173 H82        -5.3790    4.9450    2.2630 hc        1 MOL      0.054549
    174 H83        -4.3330    4.2810    3.5060 hc        1 MOL      0.054549
    175 H84        -6.2390    2.8590    4.3250 hc        1 MOL      0.032480
    176 H85        -7.1930    3.4080    3.0280 hc        1 MOL      0.032480
    177 N15        -2.6940    3.8880    0.8340 n         1 MOL     -0.201214
    178 C54        -3.3240    5.1160    0.3350 c3        1 MOL     -0.004559
    179 H86        -3.9610    4.8760   -0.5180 h1        1 MOL      0.027969
    180 H87        -3.9280    5.5620    1.1240 h1        1 MOL      0.027969
    181 H88        -2.5530    5.8210    0.0240 h1        1 MOL      0.027969
    182 H89        -1.7100    3.7110    0.6560 hn        1 MOL      0.260960
    183 Ca1        -0.8210   -0.1620    1.7180 Ca        1 MOL      1.760921
    184 O25        -2.8250   -0.9380    0.3260 oh        1 MOL     -0.906437
    185 H90        -3.4650   -0.2590    0.0830 ho        1 MOL      0.426384
    186 H91        -3.2270   -1.7550    0.0440 ho        1 MOL      0.426384
    187 O26         1.0150    1.8950    2.7870 oh        1 MOL     -0.906437
    188 H92         1.1210    1.4320    3.6190 ho        1 MOL      0.426384
    189 H93         1.9000    1.9660    2.4430 ho        1 MOL      0.426384
    190 O27        -2.9460   -0.3990    3.3500 oh        1 MOL     -0.906437
    191 H94        -2.7550   -0.7510    4.2170 ho        1 MOL      0.426384
    192 H95        -3.9020   -0.4350    3.2800 ho        1 MOL      0.426384
@<TRIPOS>BOND
     1    1    2 1   
     2    1    4 1   
     3    1    5 1   
     4    1    6 1   
     5    2    3 2   
     6    2    7 1   
     7    7    8 1   
     8    7   15 1   
     9    8    9 1   
    10    8   11 1   
    11    8   16 1   
    12    9   10 2   
    13    9   19 1   
    14   11   12 1   
    15   11   17 1   
    16   11   18 1   
    17   12   13 1   
    18   12   14 1   
    19   19   20 1   
    20   19   28 1   
    21   20   21 1   
    22   20   23 1   
    23   20   29 1   
    24   21   22 2   
    25   21   41 1   
    26   23   24 1   
    27   23   30 1   
    28   23   31 1   
    29   24   25 1   
    30   24   32 1   
    31   24   33 1   
    32   25   26 1   
    33   25   34 1   
    34   25   35 1   
    35   26   27 1   
    36   26   36 1   
    37   26   37 1   
    38   27   38 1   
    39   27   39 1   
    40   27   40 1   
    41   41   42 1   
    42   41   49 1   
    43   42   43 1   
    44   42   45 1   
    45   42   50 1   
    46   43   44 2   
    47   43   53 1   
    48   45   46 1   
    49   45   51 1   
    50   45   52 1   
    51   46   47 1   
    52   46   48 1   
    53   53   54 1   
    54   53   57 1   
    55   54   55 1   
    56   54   58 1   
    57   54   59 1   
    58   55   56 2   
    59   55   60 1   
    60   60   61 1   
    61   60   68 1   
    62   61   62 1   
    63   61   64 1   
    64   61   69 1   
    65   62   63 2   
    66   62   72 1   
    67   64   65 1   
    68   64   70 1   
    69   64   71 1   
    70   65   66 1   
    71   65   67 1   
    72   72   73 1   
    73   72   76 1   
    74   73   74 1   
    75   73   77 1   
    76   73   78 1   
    77   74   75 2   
    78   74   79 1   
    79   79   80 1   
    80   79   86 1   
    81   80   81 1   
    82   80   83 1   
    83   80   87 1   
    84   81   82 2   
    85   81   93 1   
    86   83   84 1   
    87   83   85 1   
    88   83   88 1   
    89   84   90 1   
    90   84   91 1   
    91   84   92 1   
    92   85   89 1   
    93   93   94 1   
    94   93  101 1   
    95   94   95 1   
    96   94   97 1   
    97   94  102 1   
    98   95   96 2   
    99   95  112 1   
   100   97   98 1   
   101   97   99 1   
   102   97  103 1   
   103   98  100 1   
   104   98  104 1   
   105   98  105 1   
   106   99  106 1   
   107   99  107 1   
   108   99  108 1   
   109  100  109 1   
   110  100  110 1   
   111  100  111 1   
   112  112  113 1   
   113  112  119 1   
   114  113  114 1   
   115  113  116 1   
   116  113  120 1   
   117  114  115 2   
   118  114  126 1   
   119  116  117 1   
   120  116  118 1   
   121  116  121 1   
   122  117  123 1   
   123  117  124 1   
   124  117  125 1   
   125  118  122 1   
   126  126  127 1   
   127  126  133 1   
   128  127  128 1   
   129  127  130 1   
   130  127  134 1   
   131  128  129 2   
   132  128  140 1   
   133  130  131 1   
   134  130  132 1   
   135  130  135 1   
   136  131  137 1   
   137  131  138 1   
   138  131  139 1   
   139  132  136 1   
   140  140  141 1   
   141  140  149 1   
   142  141  142 1   
   143  141  144 1   
   144  141  150 1   
   145  142  143 2   
   146  142  162 1   
   147  144  145 1   
   148  144  151 1   
   149  144  152 1   
   150  145  146 1   
   151  145  153 1   
   152  145  154 1   
   153  146  147 1   
   154  146  155 1   
   155  146  156 1   
   156  147  148 1   
   157  147  157 1   
   158  147  158 1   
   159  148  159 1   
   160  148  160 1   
   161  148  161 1   
   162  162  163 1   
   163  162  171 1   
   164  163  164 1   
   165  163  166 1   
   166  163  172 1   
   167  164  165 2   
   168  164  177 1   
   169  166  167 1   
   170  166  173 1   
   171  166  174 1   
   172  167  168 1   
   173  167  175 1   
   174  167  176 1   
   175  168  169 1   
   176  168  170 1   
   177  177  178 1   
   178  177  182 1   
   179  178  179 1   
   180  178  180 1   
   181  178  181 1   
   182  184  185 1   
   183  184  186 1   
   184  187  188 1   
   185  187  189 1   
   186  190  191 1   
   187  190  192 1   
@<TRIPOS>SUBSTRUCTURE
     1 MOL         1 TEMP              0 ****  ****    0 ROOT
