@<TRIPOS>MOLECULE
MOL
  182   178     1     0     0
SMALL
resp


@<TRIPOS>ATOM
      1 C1         -2.8500   -3.5720    4.9880 c3        1 MOL     -0.552853
      2 C2         -2.2240   -3.2850    3.6180 c         1 MOL      0.765903
      3 O1         -2.8620   -3.1100    2.6060 o         1 MOL     -0.577072
      4 H1         -2.0810   -3.9350    5.6690 hc        1 MOL      0.151804
      5 H2         -3.2850   -2.6560    5.3880 hc        1 MOL      0.151804
      6 H3         -3.6270   -4.3280    4.8820 hc        1 MOL      0.151804
      7 N1         -0.8690   -3.3220    3.5580 n         1 MOL     -0.574952
      8 C3         -0.0580   -3.1880    2.3380 c3        1 MOL      0.019311
      9 C4          0.1090   -4.6010    1.6020 c         1 MOL      0.608923
     10 O2         -0.0460   -5.6260    2.2550 o         1 MOL     -0.532756
     11 C5          1.2240   -2.4270    2.6820 c3        1 MOL     -0.115619
     12 C6          2.0070   -1.8620    1.5210 c         1 MOL      0.645089
     13 O3          2.8470   -0.9690    1.7160 o         1 MOL     -0.670799
     14 O4          1.7350   -2.2200    0.3400 o         1 MOL     -0.670799
     15 H4         -0.3630   -3.5480    4.4000 hn        1 MOL      0.303217
     16 H5         -0.6720   -2.5870    1.6570 h1        1 MOL     -0.025882
     17 H6          1.8780   -3.0990    3.2430 hc        1 MOL      0.071750
     18 H7          1.0210   -1.6330    3.4020 hc        1 MOL      0.071750
     19 N2          0.1850   -4.5160    0.2280 n         1 MOL     -0.428716
     20 C7          0.2340   -5.5800   -0.8300 c3        1 MOL      0.080085
     21 C8          1.6470   -5.7480   -1.4280 c         1 MOL      0.403346
     22 O5          2.1160   -6.8700   -1.6200 o         1 MOL     -0.534140
     23 C9         -0.8080   -5.2960   -1.8730 c3        1 MOL     -0.125881
     24 C10        -1.1950   -6.4190   -2.8470 c3        1 MOL     -0.009832
     25 C11        -2.7250   -6.8300   -2.8350 c3        1 MOL     -0.463201
     26 C12        -3.2810   -7.2890   -1.4460 c3        1 MOL     -0.017228
     27 N3         -2.5280   -8.4560   -1.0320 n4        1 MOL     -0.322392
     28 H8          0.3820   -3.5870   -0.1310 hn        1 MOL      0.221937
     29 H9          0.0410   -6.5310   -0.3320 h1        1 MOL      0.044796
     30 H10        -0.5580   -4.4060   -2.4460 hc        1 MOL      0.090690
     31 H11        -1.7380   -5.0140   -1.3810 hc        1 MOL      0.090690
     32 H12        -0.6760   -7.3370   -2.5790 hc        1 MOL      0.060078
     33 H13        -0.9820   -6.0160   -3.8390 hc        1 MOL      0.060078
     34 H14        -2.7540   -7.5550   -3.6490 hc        1 MOL      0.186399
     35 H15        -3.2370   -5.8980   -3.0700 hc        1 MOL      0.186399
     36 H16        -4.3250   -7.5950   -1.3600 hx        1 MOL      0.132458
     37 H17        -3.0120   -6.5750   -0.6730 hx        1 MOL      0.132458
     38 H18        -3.0150   -9.3250   -1.1730 hn        1 MOL      0.309321
     39 H19        -1.7400   -8.5150   -1.6720 hn        1 MOL      0.309321
     40 H20        -2.1840   -8.3130   -0.0970 hn        1 MOL      0.309321
     41 N4          2.3880   -4.6460   -1.6080 n         1 MOL     -0.248242
     42 C13         3.7610   -4.5410   -2.0110 c3        1 MOL      0.045378
     43 C14         4.7490   -4.4030   -0.8460 c         1 MOL      0.560808
     44 O6          5.8270   -4.9470   -0.9600 o         1 MOL     -0.526868
     45 C15         3.9330   -3.3590   -3.0410 c3        1 MOL     -0.260394
     46 C16         3.3070   -2.1140   -2.4550 c         1 MOL      0.660884
     47 O7          4.0010   -1.5130   -1.6120 o         1 MOL     -0.701603
     48 O8          2.0670   -1.8390   -2.6130 o         1 MOL     -0.701603
     49 H21         1.7780   -3.9000   -1.2980 hn        1 MOL      0.176759
     50 H22         3.9590   -5.4280   -2.6170 h1        1 MOL      0.112707
     51 H23         3.4640   -3.7660   -3.9500 hc        1 MOL      0.080534
     52 H24         5.0040   -3.2020   -3.1420 hc        1 MOL      0.080534
     53 N5          4.2990   -3.8590    0.3220 n         1 MOL     -0.239090
     54 C17         5.1860   -3.5490    1.4070 c3        1 MOL     -0.180715
     55 C18         6.2080   -2.4390    1.2110 c         1 MOL      0.524505
     56 O9          7.3280   -2.4680    1.7910 o         1 MOL     -0.573223
     57 H25         3.4280   -3.3470    0.2060 hn        1 MOL      0.113030
     58 H26         5.7160   -4.4770    1.6160 h1        1 MOL      0.112126
     59 H27         4.6280   -3.2200    2.2740 h1        1 MOL      0.112126
     60 N6          6.0240   -1.4820    0.2650 n         1 MOL     -0.071017
     61 C19         6.9830   -0.3870   -0.0510 c3        1 MOL      0.015071
     62 C20         6.2720    0.9660   -0.4010 c         1 MOL      0.322721
     63 O10         5.0540    0.9780   -0.6880 o         1 MOL     -0.426754
     64 C21         7.9160   -0.8540   -1.1860 c3        1 MOL     -0.266919
     65 C22         7.5000   -0.3830   -2.5930 c         1 MOL      0.482216
     66 N7          6.3280   -0.7330   -3.0210 n         1 MOL     -0.511623
     67 O11         8.1920    0.3340   -3.2990 o         1 MOL     -0.578902
     68 H28         5.1410   -1.4710   -0.2270 hn        1 MOL     -0.011420
     69 H29         7.6200   -0.1790    0.8100 h1        1 MOL      0.070139
     70 H30         8.1580   -1.9180   -1.2330 hc        1 MOL      0.115387
     71 H31         8.8480   -0.3840   -0.8840 hc        1 MOL      0.115387
     72 H32         5.7340   -1.3030   -2.4480 hn        1 MOL      0.300220
     73 H33         6.1130   -0.4980   -3.9860 hn        1 MOL      0.300220
     74 N8          6.9980    2.0630   -0.4800 n         1 MOL     -0.155601
     75 C23         6.4290    3.3950   -0.7220 c3        1 MOL     -0.311457
     76 C24         5.2980    3.8370    0.2130 c         1 MOL      0.720522
     77 O12         5.4520    3.8870    1.4650 o         1 MOL     -0.528187
     78 H34         7.9740    1.9770   -0.2250 hn        1 MOL      0.272784
     79 H35         5.9590    3.2690   -1.7040 h1        1 MOL      0.131167
     80 H36         7.2170    4.1400   -0.6810 h1        1 MOL      0.131167
     81 N9          4.1500    4.2760   -0.3610 n         1 MOL     -0.678182
     82 C25         2.8720    4.5610    0.2510 c3        1 MOL      0.402751
     83 C26         2.3680    3.3530    1.0300 c         1 MOL      0.142121
     84 O13         2.8500    2.2350    0.7780 o         1 MOL     -0.385913
     85 C27         1.8990    5.1190   -0.8050 c3        1 MOL     -0.144825
     86 C28         2.0390    6.6360   -1.0780 ca        1 MOL     -0.026901
     87 C29         1.8500    7.5260   -0.0590 ca        1 MOL     -0.073257
     88 C30         2.1480    7.0960   -2.4210 ca        1 MOL     -0.073257
     89 C31         1.9080    8.8920   -0.3140 ca        1 MOL     -0.316375
     90 C32         2.3550    8.4620   -2.6380 ca        1 MOL     -0.316375
     91 C33         2.1270    9.3670   -1.5900 ca        1 MOL      0.399005
     92 O14         2.0810   10.7040   -1.8010 oh        1 MOL     -0.467645
     93 H37         4.1280    4.3280   -1.3660 hn        1 MOL      0.306628
     94 H38         3.0860    5.2360    1.0770 h1        1 MOL      0.030754
     95 H39         0.8910    4.8990   -0.4530 hc        1 MOL      0.037411
     96 H40         2.1230    4.7120   -1.7850 hc        1 MOL      0.037411
     97 H41         1.8690    7.1350    0.9520 ha        1 MOL      0.106662
     98 H42         2.2050    6.3680   -3.2180 ha        1 MOL      0.106662
     99 H43         1.8080    9.6290    0.4660 ha        1 MOL      0.165112
    100 H44         2.4580    8.9300   -3.6120 ha        1 MOL      0.165112
    101 H45         2.4100   10.8520   -2.6950 ho        1 MOL      0.352397
    102 N10         1.4810    3.5660    2.0150 n         1 MOL     -0.371454
    103 C34         0.8550    2.5390    2.9810 c3        1 MOL      0.063425
    104 C35        -0.1300    1.6130    2.2800 c         1 MOL      0.423582
    105 O15         0.1530    1.0580    1.2460 o         1 MOL     -0.548344
    106 C36         1.9060    1.9300    3.9830 c3        1 MOL      0.302149
    107 C37         1.2120    1.3620    5.2370 c3        1 MOL     -0.005553
    108 C38         3.0480    2.9430    4.2620 c3        1 MOL     -0.178020
    109 C39         2.1250    0.6860    6.2680 c3        1 MOL     -0.091842
    110 H46         1.1220    4.5010    2.1560 hn        1 MOL      0.269643
    111 H47         0.2780    3.2560    3.5770 h1        1 MOL      0.039290
    112 H48         2.4480    1.1040    3.5170 hc        1 MOL     -0.020177
    113 H49         0.4170    0.6620    4.9770 hc        1 MOL     -0.035153
    114 H50         0.7170    2.2210    5.6860 hc        1 MOL     -0.035153
    115 H51         2.5830    3.7960    4.7600 hc        1 MOL      0.047613
    116 H52         3.8720    2.5820    4.8800 hc        1 MOL      0.047613
    117 H53         3.5990    3.2060    3.3580 hc        1 MOL      0.047613
    118 H54         1.6270    0.1960    7.0990 hc        1 MOL      0.029561
    119 H55         2.6060   -0.1420    5.7400 hc        1 MOL      0.029561
    120 H56         2.8260    1.4470    6.6080 hc        1 MOL      0.029561
    121 N11        -1.2460    1.3180    2.9430 n         1 MOL     -0.512623
    122 C40        -2.1880    0.2520    2.5460 c3        1 MOL     -0.023126
    123 C41        -3.0530    0.6460    1.3000 c         1 MOL      0.416730
    124 O16        -4.1590    0.1080    1.2240 o         1 MOL     -0.487868
    125 C42        -3.0160   -0.0800    3.7440 c3        1 MOL      0.536821
    126 O17        -2.2270   -0.3570    4.8890 oh        1 MOL     -0.685215
    127 H57        -1.3130    1.7310    3.8650 hn        1 MOL      0.278242
    128 H58        -1.7190   -0.6530    2.1800 h1        1 MOL      0.163261
    129 H59        -3.7210   -0.8760    3.5090 h1        1 MOL     -0.032576
    130 H60        -3.6140    0.8080    3.9530 h1        1 MOL     -0.032576
    131 H61        -1.3180   -0.6300    4.7210 ho        1 MOL      0.393865
    132 N12        -2.6050    1.6210    0.4510 n         1 MOL     -0.353798
    133 C43        -3.4390    2.1380   -0.6850 c3        1 MOL      0.059562
    134 C44        -3.3900    1.2760   -1.8990 c         1 MOL      0.663457
    135 O18        -2.3410    1.1870   -2.5250 o         1 MOL     -0.619154
    136 C45        -3.1100    3.5590   -1.0350 c3        1 MOL     -0.275751
    137 H62        -1.7360    2.0610    0.7090 hn        1 MOL      0.279546
    138 H63        -4.4930    2.1500   -0.4110 h1        1 MOL      0.067411
    139 H64        -2.0760    3.7310   -1.3220 hc        1 MOL      0.093989
    140 H65        -3.8150    3.8900   -1.7980 hc        1 MOL      0.093989
    141 H66        -3.3140    4.1570   -0.1450 hc        1 MOL      0.093989
    142 N13        -4.4140    0.5660   -2.4360 n         1 MOL     -0.675070
    143 C46        -5.7560    0.2880   -1.8510 c3        1 MOL      0.226283
    144 C47        -7.0380    1.1920   -2.2210 c         1 MOL      0.656212
    145 O19        -6.9540    1.7720   -3.3230 o         1 MOL     -0.583129
    146 C48        -5.9950   -1.2290   -1.9840 c3        1 MOL     -0.108622
    147 H67        -4.2360    0.2400   -3.3770 hn        1 MOL      0.373276
    148 H68        -5.6340    0.5900   -0.8140 h1        1 MOL      0.090519
    149 H69        -6.1210   -1.3780   -3.0560 hc        1 MOL      0.026411
    150 H70        -5.1030   -1.7670   -1.6680 hc        1 MOL      0.026411
    151 H71        -6.8960   -1.5360   -1.4450 hc        1 MOL      0.026411
    152 N14        -8.0500    1.3800   -1.3880 n         1 MOL     -0.651875
    153 C49        -8.3250    0.7150   -0.0750 c3        1 MOL     -0.176816
    154 C50        -8.8750    1.6180    1.0490 c         1 MOL      0.607582
    155 O20        -8.6880    1.2870    2.1780 o         1 MOL     -0.552189
    156 C51        -9.2700   -0.4670   -0.2770 c3        1 MOL      0.235456
    157 C52       -10.7020   -0.2110   -0.6880 c3        1 MOL     -0.291160
    158 C53       -10.7910    0.3910   -2.1320 c         1 MOL      0.809147
    159 O21       -10.7470    1.6160   -2.3020 o         1 MOL     -0.694159
    160 O22       -10.9990   -0.3490   -3.0840 o         1 MOL     -0.694159
    161 H72        -8.7920    2.0120   -1.6980 hn        1 MOL      0.327272
    162 H73        -7.3890    0.3400    0.3270 h1        1 MOL      0.061252
    163 H74        -9.2950   -1.0790    0.6170 hc        1 MOL     -0.021324
    164 H75        -8.7620   -1.1480   -0.9670 hc        1 MOL     -0.021324
    165 H76       -11.1500    0.4940    0.0000 hc        1 MOL      0.035164
    166 H77       -11.2990   -1.1160   -0.7320 hc        1 MOL      0.035164
    167 N15        -9.5970    2.6920    0.6860 n         1 MOL     -0.268082
    168 C54       -10.1660    3.6000    1.6730 c3        1 MOL     -0.198412
    169 H78       -10.8610    4.2800    1.1810 h1        1 MOL      0.091428
    170 H79       -10.6970    3.0260    2.4310 h1        1 MOL      0.091428
    171 H80        -9.3680    4.1740    2.1430 h1        1 MOL      0.091428
    172 H81        -9.8590    2.8430   -0.2810 hn        1 MOL      0.231956
    173 Ca1         2.0630    0.0700   -0.7430 Ca        1 MOL      1.778763
    174 O23         2.9750    1.4860   -2.8690 oh        1 MOL     -0.818900
    175 H82         3.5730    2.2260   -2.9650 ho        1 MOL      0.406782
    176 H83         2.5640    1.3910   -3.7240 ho        1 MOL      0.406782
    177 O24         0.2760    2.2790   -1.4010 oh        1 MOL     -0.818900
    178 H84         0.3520    3.0020   -2.0180 ho        1 MOL      0.406782
    179 H85        -0.6670    2.2190   -1.2160 ho        1 MOL      0.406782
    180 O25        -0.4050   -0.6720   -1.2850 oh        1 MOL     -0.818900
    181 H86        -0.9110   -1.2670   -0.7310 ho        1 MOL      0.406782
    182 H87        -1.0330   -0.3430   -1.9250 ho        1 MOL      0.406782
@<TRIPOS>BOND
     1    1    2 1   
     2    1    4 1   
     3    1    5 1   
     4    1    6 1   
     5    2    3 2   
     6    2    7 1   
     7    7    8 1   
     8    7   15 1   
     9    8    9 1   
    10    8   11 1   
    11    8   16 1   
    12    9   10 2   
    13    9   19 1   
    14   11   12 1   
    15   11   17 1   
    16   11   18 1   
    17   12   13 1   
    18   12   14 1   
    19   19   20 1   
    20   19   28 1   
    21   20   21 1   
    22   20   23 1   
    23   20   29 1   
    24   21   22 2   
    25   21   41 1   
    26   23   24 1   
    27   23   30 1   
    28   23   31 1   
    29   24   25 1   
    30   24   32 1   
    31   24   33 1   
    32   25   26 1   
    33   25   34 1   
    34   25   35 1   
    35   26   27 1   
    36   26   36 1   
    37   26   37 1   
    38   27   38 1   
    39   27   39 1   
    40   27   40 1   
    41   41   42 1   
    42   41   49 1   
    43   42   43 1   
    44   42   45 1   
    45   42   50 1   
    46   43   44 2   
    47   43   53 1   
    48   45   46 1   
    49   45   51 1   
    50   45   52 1   
    51   46   47 1   
    52   46   48 1   
    53   53   54 1   
    54   53   57 1   
    55   54   55 1   
    56   54   58 1   
    57   54   59 1   
    58   55   56 2   
    59   55   60 1   
    60   60   61 1   
    61   60   68 1   
    62   61   62 1   
    63   61   64 1   
    64   61   69 1   
    65   62   63 2   
    66   62   74 1   
    67   64   65 1   
    68   64   70 1   
    69   64   71 1   
    70   65   66 1   
    71   65   67 2   
    72   66   72 1   
    73   66   73 1   
    74   74   75 1   
    75   74   78 1   
    76   75   76 1   
    77   75   79 1   
    78   75   80 1   
    79   76   77 2   
    80   76   81 1   
    81   81   82 1   
    82   81   93 1   
    83   82   83 1   
    84   82   85 1   
    85   82   94 1   
    86   83   84 2   
    87   83  102 1   
    88   85   86 1   
    89   85   95 1   
    90   85   96 1   
    91   86   87 ar  
    92   86   88 ar  
    93   87   89 ar  
    94   87   97 1   
    95   88   90 ar  
    96   88   98 1   
    97   89   91 ar  
    98   89   99 1   
    99   90   91 ar  
   100   90  100 1   
   101   91   92 1   
   102   92  101 1   
   103  102  103 1   
   104  102  110 1   
   105  103  104 1   
   106  103  106 1   
   107  103  111 1   
   108  104  105 2   
   109  104  121 1   
   110  106  107 1   
   111  106  108 1   
   112  106  112 1   
   113  107  109 1   
   114  107  113 1   
   115  107  114 1   
   116  108  115 1   
   117  108  116 1   
   118  108  117 1   
   119  109  118 1   
   120  109  119 1   
   121  109  120 1   
   122  121  122 1   
   123  121  127 1   
   124  122  123 1   
   125  122  125 1   
   126  122  128 1   
   127  123  124 2   
   128  123  132 1   
   129  125  126 1   
   130  125  129 1   
   131  125  130 1   
   132  126  131 1   
   133  132  133 1   
   134  132  137 1   
   135  133  134 1   
   136  133  136 1   
   137  133  138 1   
   138  134  135 2   
   139  134  142 1   
   140  136  139 1   
   141  136  140 1   
   142  136  141 1   
   143  142  143 1   
   144  142  147 1   
   145  143  144 1   
   146  143  146 1   
   147  143  148 1   
   148  144  145 2   
   149  144  152 1   
   150  146  149 1   
   151  146  150 1   
   152  146  151 1   
   153  152  153 1   
   154  152  161 1   
   155  153  154 1   
   156  153  156 1   
   157  153  162 1   
   158  154  155 2   
   159  154  167 1   
   160  156  157 1   
   161  156  163 1   
   162  156  164 1   
   163  157  158 1   
   164  157  165 1   
   165  157  166 1   
   166  158  159 1   
   167  158  160 1   
   168  167  168 1   
   169  167  172 1   
   170  168  169 1   
   171  168  170 1   
   172  168  171 1   
   173  174  175 1   
   174  174  176 1   
   175  177  178 1   
   176  177  179 1   
   177  180  181 1   
   178  180  182 1   
@<TRIPOS>SUBSTRUCTURE
     1 MOL         1 TEMP              0 ****  ****    0 ROOT
