@<TRIPOS>MOLECULE
MOL
  198   191     1     0     0
SMALL
resp


@<TRIPOS>ATOM
      1 C1         -9.7920    4.1630    4.3980 c3        1 MOL     -0.475347
      2 C2         -8.9460    3.7460    3.1780 c         1 MOL      0.783863
      3 O1         -8.5560    2.5830    2.9100 o         1 MOL     -0.623842
      4 H1        -10.6740    4.7070    4.0590 hc        1 MOL      0.118400
      5 H2        -10.1030    3.2750    4.9460 hc        1 MOL      0.118400
      6 H3         -9.1990    4.8050    5.0500 hc        1 MOL      0.118400
      7 N1         -8.7850    4.7630    2.3310 n         1 MOL     -0.578559
      8 C3         -7.9760    4.8890    1.1060 c3        1 MOL      0.052175
      9 C4         -8.1420    3.7210    0.0600 c         1 MOL      0.587109
     10 O2         -7.2670    3.7810   -0.7680 o         1 MOL     -0.536687
     11 C5         -6.5410    5.3550    1.4400 c3        1 MOL     -0.125667
     12 C6         -6.4440    6.5510    2.4280 c         1 MOL      0.666390
     13 O3         -7.4540    7.3200    2.6250 o         1 MOL     -0.660241
     14 O4         -5.3470    6.6560    3.0120 o         1 MOL     -0.660241
     15 H4         -9.3120    5.5940    2.5620 hn        1 MOL      0.278448
     16 H5         -8.4680    5.7110    0.5660 h1        1 MOL      0.039958
     17 H6         -6.0150    5.6230    0.5280 hc        1 MOL      0.056421
     18 H7         -6.0340    4.4720    1.8320 hc        1 MOL      0.056421
     19 N2         -9.2360    2.8680    0.0820 n         1 MOL     -0.470763
     20 C7         -9.5770    2.0340   -1.1080 c3        1 MOL     -0.026385
     21 C8         -8.5480    0.9490   -1.5870 c         1 MOL      0.468649
     22 O5         -8.7970    0.2460   -2.5700 o         1 MOL     -0.532776
     23 C9        -10.0970    2.8260   -2.2850 c3        1 MOL      0.072469
     24 C10       -10.9810    4.0350   -1.9390 c3        1 MOL     -0.071946
     25 C11       -11.6810    4.6980   -3.1010 c3        1 MOL      0.041768
     26 C12       -10.7450    5.2470   -4.1960 c3        1 MOL     -0.021449
     27 N3        -11.5720    5.6730   -5.3640 n4        1 MOL     -0.273118
     28 H8         -9.9380    3.0360    0.7960 hn        1 MOL      0.263537
     29 H9        -10.4360    1.4010   -0.8440 h1        1 MOL      0.113902
     30 H10       -10.7010    2.1900   -2.9240 hc        1 MOL     -0.002086
     31 H11        -9.3660    3.2440   -2.9800 hc        1 MOL     -0.002086
     32 H12       -10.5060    4.8740   -1.4400 hc        1 MOL      0.029683
     33 H13       -11.8010    3.6850   -1.3000 hc        1 MOL      0.029683
     34 H14       -12.3150    5.5130   -2.7310 hc        1 MOL      0.013269
     35 H15       -12.4600    4.0320   -3.4610 hc        1 MOL      0.013269
     36 H16       -10.1080    4.4180   -4.4820 hx        1 MOL      0.111602
     37 H17       -10.1360    6.0660   -3.8150 hx        1 MOL      0.111602
     38 H18       -11.0050    6.1560   -6.0370 hn        1 MOL      0.267906
     39 H19       -12.0000    4.8840   -5.8310 hn        1 MOL      0.267906
     40 H20       -12.3410    6.2940   -5.1490 hn        1 MOL      0.267906
     41 N4         -7.4130    0.8500   -0.8480 n         1 MOL     -0.445393
     42 C13        -6.3120   -0.1290   -0.9650 c3        1 MOL      0.120852
     43 C14        -5.6850   -0.3890    0.3990 c         1 MOL      0.389315
     44 O6         -4.9570    0.4870    0.9320 o         1 MOL     -0.527178
     45 C15        -5.3230    0.2200   -2.0790 c3        1 MOL     -0.079584
     46 C16        -4.2460   -0.8420   -2.3210 c         1 MOL      0.790655
     47 O7         -3.4840   -0.7410   -3.2800 o         1 MOL     -0.809535
     48 O8         -4.1520   -1.9110   -1.6310 o         1 MOL     -0.809535
     49 H21        -7.2830    1.6300   -0.2170 hn        1 MOL      0.319326
     50 H22        -6.7730   -1.0740   -1.2440 h1        1 MOL      0.062494
     51 H23        -4.9040    1.1840   -1.8140 hc        1 MOL      0.051251
     52 H24        -5.8340    0.4440   -3.0250 hc        1 MOL      0.051251
     53 N5         -5.8350   -1.5850    0.9400 n         1 MOL     -0.191451
     54 C17        -6.7340   -2.7270    0.6760 c3        1 MOL     -0.156044
     55 C18        -6.0690   -4.1140    0.6080 c         1 MOL      0.526554
     56 O9         -6.6590   -5.0270    1.0600 o         1 MOL     -0.552574
     57 H25        -5.1720   -1.7620    1.6800 hn        1 MOL      0.191363
     58 H26        -7.2420   -2.7060   -0.2870 h1        1 MOL      0.094500
     59 H27        -7.4660   -2.7060    1.4880 h1        1 MOL      0.094500
     60 N6         -4.8960   -4.1980   -0.0330 n         1 MOL     -0.033231
     61 C19        -3.9660   -5.3270    0.0470 c3        1 MOL     -0.086487
     62 C20        -2.4940   -4.9420    0.0560 c         1 MOL     -0.090731
     63 O10        -2.0220   -3.9050   -0.3930 o         1 MOL     -0.342769
     64 C21        -4.2150   -6.3200   -1.1090 c3        1 MOL     -0.077486
     65 C22        -4.4990   -5.8050   -2.5570 c         1 MOL      0.650344
     66 O11        -3.9340   -4.7750   -2.9680 o         1 MOL     -0.672812
     67 O12        -5.3500   -6.2940   -3.2820 o         1 MOL     -0.672812
     68 H28        -4.5570   -3.3730   -0.5100 hn        1 MOL      0.117946
     69 H29        -4.1640   -5.7720    1.0180 h1        1 MOL      0.097688
     70 H30        -5.0080   -7.0030   -0.8200 hc        1 MOL      0.029786
     71 H31        -3.4030   -7.0320   -1.2540 hc        1 MOL      0.029786
     72 N7         -1.6930   -5.8930    0.5690 n         1 MOL     -0.194311
     73 C23        -0.2800   -5.6150    0.8770 c3        1 MOL     -0.069001
     74 C24         0.0260   -4.5040    1.9240 c         1 MOL      0.473145
     75 O13         1.1660   -3.9990    2.0080 o         1 MOL     -0.497611
     76 H32        -2.0690   -6.7290    0.9940 hn        1 MOL      0.289814
     77 H33         0.2260   -5.2470   -0.0270 h1        1 MOL      0.061818
     78 H34         0.2330   -6.5490    1.1170 h1        1 MOL      0.061818
     79 N8         -0.9750   -4.1470    2.7240 n         1 MOL     -0.385216
     80 C25        -0.9850   -2.9940    3.5750 c3        1 MOL      0.039556
     81 C26        -0.4260   -1.7530    2.8980 c         1 MOL      0.618261
     82 O14        -0.8300   -1.4290    1.7620 o         1 MOL     -0.466550
     83 C27        -2.3560   -2.7920    4.1480 c3        1 MOL      0.336883
     84 C28        -3.4670   -2.3370    3.1920 c3        1 MOL     -0.478916
     85 O15        -2.8690   -3.8960    4.7830 oh        1 MOL     -0.658551
     86 H35        -1.8560   -4.6200    2.5430 hn        1 MOL      0.323523
     87 H36        -0.2940   -3.1980    4.3840 h1        1 MOL      0.065597
     88 H37        -2.1140   -2.0720    4.9350 h1        1 MOL     -0.023854
     89 H38        -3.5420   -3.5430    5.3700 ho        1 MOL      0.435897
     90 H39        -4.4280   -2.2710    3.7050 hc        1 MOL      0.136061
     91 H40        -3.1650   -1.4450    2.6440 hc        1 MOL      0.136061
     92 H41        -3.6250   -3.1350    2.4690 hc        1 MOL      0.136061
     93 N9          0.4820   -1.0440    3.5620 n         1 MOL     -0.654109
     94 C29         1.1180    0.2110    3.1680 c3        1 MOL     -0.149908
     95 C30         2.2270    0.0930    2.0360 c         1 MOL      0.492690
     96 O16         2.3590    0.9560    1.2150 o         1 MOL     -0.501884
     97 C31         1.6440    0.9190    4.4840 c3        1 MOL      0.292850
     98 C32         0.4230    0.8990    5.5370 c3        1 MOL     -0.015101
     99 C33         2.3310    2.2960    4.1330 c3        1 MOL     -0.381159
    100 C34         0.7460    1.6170    6.8390 c3        1 MOL     -0.279592
    101 H42         0.8110   -1.4180    4.4440 hn        1 MOL      0.335557
    102 H43         0.3820    0.9000    2.7740 h1        1 MOL      0.142769
    103 H44         2.3530    0.2380    4.9580 hc        1 MOL     -0.024074
    104 H45         0.1860   -0.1190    5.8570 hc        1 MOL      0.051190
    105 H46        -0.4690    1.3840    5.1400 hc        1 MOL      0.051190
    106 H47         2.8960    2.6400    4.9890 hc        1 MOL      0.113191
    107 H48         2.9760    2.1990    3.2530 hc        1 MOL      0.113191
    108 H49         1.4820    2.9280    3.8840 hc        1 MOL      0.113191
    109 H50        -0.1200    1.5970    7.5000 hc        1 MOL      0.067535
    110 H51         1.6560    1.1870    7.2460 hc        1 MOL      0.067535
    111 H52         0.9870    2.6400    6.5780 hc        1 MOL      0.067535
    112 N10         2.9450   -1.0150    2.0980 n         1 MOL     -0.489589
    113 C35         3.9650   -1.3940    1.0400 c3        1 MOL      0.105639
    114 C36         5.2380   -2.0060    1.7000 c         1 MOL      0.582712
    115 O17         5.1260   -2.5570    2.8360 o         1 MOL     -0.533539
    116 C37         3.4110   -2.4270   -0.0210 c3        1 MOL      0.235509
    117 C38         2.2050   -1.8530   -0.7770 c3        1 MOL     -0.197310
    118 O18         4.3630   -2.9120   -0.9600 oh        1 MOL     -0.632831
    119 H53         2.5130   -1.7230    2.6570 hn        1 MOL      0.296099
    120 H54         4.2560   -0.4780    0.5290 h1        1 MOL      0.079580
    121 H55         3.1090   -3.2800    0.5800 h1        1 MOL      0.000635
    122 H56         3.8940   -3.6450   -1.3650 ho        1 MOL      0.389181
    123 H57         1.3280   -1.7640   -0.1290 hc        1 MOL      0.061045
    124 H58         2.5070   -0.8610   -1.1280 hc        1 MOL      0.061045
    125 H59         1.9140   -2.4270   -1.6520 hc        1 MOL      0.061045
    126 N11         6.3480   -1.8340    0.9930 n         1 MOL     -0.590696
    127 C39         7.6940   -2.3650    1.3030 c3        1 MOL      0.075767
    128 C40         8.7340   -1.2660    1.3220 c         1 MOL      0.663004
    129 O19         9.2690   -0.9430    2.3950 o         1 MOL     -0.558998
    130 C41         7.9800   -3.5840    0.3620 c3        1 MOL      0.214055
    131 C42         9.3340   -4.2230    0.7210 c3        1 MOL     -0.358211
    132 O20         8.0850   -3.1490   -1.0220 oh        1 MOL     -0.608175
    133 H60         6.2450   -1.3850    0.1020 hn        1 MOL      0.328595
    134 H61         7.7260   -2.7470    2.3270 h1        1 MOL      0.081190
    135 H62         7.2050   -4.3390    0.3130 h1        1 MOL      0.077297
    136 H63         8.3360   -3.9090   -1.5620 ho        1 MOL      0.401046
    137 H64         9.3900   -5.1740    0.1950 hc        1 MOL      0.092558
    138 H65        10.1040   -3.4750    0.5040 hc        1 MOL      0.092558
    139 H66         9.3220   -4.5260    1.7730 hc        1 MOL      0.092558
    140 N12         9.0120   -0.7000    0.1210 n         1 MOL     -0.490249
    141 C43         9.8880    0.4870   -0.1360 c3        1 MOL      0.092673
    142 C44         9.1670    1.5350   -1.0740 c         1 MOL      0.485288
    143 O21         8.4500    1.2730   -2.0180 o         1 MOL     -0.493064
    144 C45        11.2400   -0.0180   -0.7220 c3        1 MOL     -0.289198
    145 C46        12.2500    1.0780   -0.9020 c3        1 MOL      0.111756
    146 C47        13.6840    0.6190   -1.3860 c3        1 MOL     -0.066109
    147 C48        14.6980    1.7720   -1.6780 c3        1 MOL      0.044115
    148 N13        16.0210    1.2220   -2.1160 n4        1 MOL     -0.137746
    149 H67         8.5110   -1.0330   -0.6910 hn        1 MOL      0.262780
    150 H68        10.0680    0.9970    0.8110 h1        1 MOL      0.073886
    151 H69        11.1300   -0.6500   -1.6090 hc        1 MOL      0.110949
    152 H70        11.6410   -0.6670    0.0540 hc        1 MOL      0.110949
    153 H71        12.3010    1.7370   -0.0410 hc        1 MOL      0.019359
    154 H72        11.8230    1.6990   -1.6950 hc        1 MOL      0.019359
    155 H73        13.5440   -0.0080   -2.2740 hc        1 MOL      0.019646
    156 H74        13.9830   -0.0250   -0.5550 hc        1 MOL      0.019646
    157 H75        14.7520    2.3230   -0.7320 hx        1 MOL      0.070426
    158 H76        14.1910    2.4420   -2.3660 hx        1 MOL      0.070426
    159 H77        16.7300    1.8900   -2.3640 hn        1 MOL      0.213376
    160 H78        16.3750    0.5350   -1.4700 hn        1 MOL      0.213376
    161 H79        15.8820    0.6630   -2.9480 hn        1 MOL      0.213376
    162 N14         9.3830    2.8110   -0.8740 n         1 MOL     -0.399815
    163 C49         8.7820    3.9550   -1.5840 c3        1 MOL      0.112894
    164 C50         7.2250    3.8460   -1.6320 c         1 MOL      0.346062
    165 O22         6.6360    3.8720   -2.7400 o         1 MOL     -0.520639
    166 C51         9.3140    5.3170   -0.9680 c3        1 MOL      0.045197
    167 C52         9.0130    6.4380   -1.8580 c3        1 MOL     -0.138079
    168 C53         9.7180    7.6820   -1.4300 c         1 MOL      0.703515
    169 O23         9.0720    8.6600   -1.0010 o         1 MOL     -0.654078
    170 O24        10.9290    7.6950   -1.4510 o         1 MOL     -0.654078
    171 H80        10.0270    3.0290   -0.1250 hn        1 MOL      0.199955
    172 H81         9.1390    3.9220   -2.6120 h1        1 MOL      0.077827
    173 H82        10.3980    5.2550   -0.9190 hc        1 MOL     -0.002261
    174 H83         8.8620    5.3900    0.0160 hc        1 MOL     -0.002261
    175 H84         7.9650    6.7290   -1.9580 hc        1 MOL      0.019574
    176 H85         9.3150    6.0920   -2.8470 hc        1 MOL      0.019574
    177 N15         6.5070    3.4770   -0.5730 n         1 MOL     -0.240774
    178 C54         6.6910    3.6120    0.8590 c3        1 MOL     -0.021465
    179 H86         5.7220    3.7600    1.3360 h1        1 MOL      0.045233
    180 H87         7.1570    2.7090    1.2520 h1        1 MOL      0.045233
    181 H88         7.3300    4.4710    1.0650 h1        1 MOL      0.045233
    182 H89         5.5830    3.0830   -0.7270 hn        1 MOL      0.268395
    183 Ca1        -2.0690   -2.8260   -3.0080 Ca        1 MOL      1.794630
    184 O25        -2.5510   -3.8390   -5.4350 oh        1 MOL     -0.829600
    185 H90        -3.4800   -3.7530   -5.6560 ho        1 MOL      0.416032
    186 H91        -2.1420   -4.1470   -6.2410 ho        1 MOL      0.416032
    187 O26        -1.1000   -5.3970   -2.5940 oh        1 MOL     -0.829600
    188 H92        -1.0840   -6.2350   -2.1380 ho        1 MOL      0.416032
    189 H93        -0.2430   -5.3490   -3.0320 ho        1 MOL      0.416032
    190 O27         0.6110   -3.4730   -3.9870 oh        1 MOL     -0.829600
    191 H94         1.1540   -4.2050   -4.2910 ho        1 MOL      0.416032
    192 H95         0.9880   -2.7010   -4.4090 ho        1 MOL      0.416032
    193 O28        -0.8460   -1.0660   -1.4100 oh        1 MOL     -0.829600
    194 H96        -0.6310   -1.5720   -0.6370 ho        1 MOL      0.416032
    195 H97        -1.0710   -0.2010   -1.0800 ho        1 MOL      0.416032
    196 O29        -0.5010   -0.9080   -4.4880 oh        1 MOL     -0.829600
    197 H98        -0.2090   -0.1280   -4.0310 ho        1 MOL      0.416032
    198 H99        -0.4550   -0.6760   -5.4230 ho        1 MOL      0.416032
@<TRIPOS>BOND
     1    1    2 1   
     2    1    4 1   
     3    1    5 1   
     4    1    6 1   
     5    2    3 2   
     6    2    7 1   
     7    7    8 1   
     8    7   15 1   
     9    8    9 1   
    10    8   11 1   
    11    8   16 1   
    12    9   10 2   
    13    9   19 1   
    14   11   12 1   
    15   11   17 1   
    16   11   18 1   
    17   12   13 1   
    18   12   14 1   
    19   19   20 1   
    20   19   28 1   
    21   20   21 1   
    22   20   23 1   
    23   20   29 1   
    24   21   22 2   
    25   21   41 1   
    26   23   24 1   
    27   23   30 1   
    28   23   31 1   
    29   24   25 1   
    30   24   32 1   
    31   24   33 1   
    32   25   26 1   
    33   25   34 1   
    34   25   35 1   
    35   26   27 1   
    36   26   36 1   
    37   26   37 1   
    38   27   38 1   
    39   27   39 1   
    40   27   40 1   
    41   41   42 1   
    42   41   49 1   
    43   42   43 1   
    44   42   45 1   
    45   42   50 1   
    46   43   44 2   
    47   43   53 1   
    48   45   46 1   
    49   45   51 1   
    50   45   52 1   
    51   46   47 1   
    52   46   48 1   
    53   53   54 1   
    54   53   57 1   
    55   54   55 1   
    56   54   58 1   
    57   54   59 1   
    58   55   56 2   
    59   55   60 1   
    60   60   61 1   
    61   60   68 1   
    62   61   62 1   
    63   61   64 1   
    64   61   69 1   
    65   62   63 2   
    66   62   72 1   
    67   64   65 1   
    68   64   70 1   
    69   64   71 1   
    70   65   66 1   
    71   65   67 1   
    72   72   73 1   
    73   72   76 1   
    74   73   74 1   
    75   73   77 1   
    76   73   78 1   
    77   74   75 2   
    78   74   79 1   
    79   79   80 1   
    80   79   86 1   
    81   80   81 1   
    82   80   83 1   
    83   80   87 1   
    84   81   82 2   
    85   81   93 1   
    86   83   84 1   
    87   83   85 1   
    88   83   88 1   
    89   84   90 1   
    90   84   91 1   
    91   84   92 1   
    92   85   89 1   
    93   93   94 1   
    94   93  101 1   
    95   94   95 1   
    96   94   97 1   
    97   94  102 1   
    98   95   96 2   
    99   95  112 1   
   100   97   98 1   
   101   97   99 1   
   102   97  103 1   
   103   98  100 1   
   104   98  104 1   
   105   98  105 1   
   106   99  106 1   
   107   99  107 1   
   108   99  108 1   
   109  100  109 1   
   110  100  110 1   
   111  100  111 1   
   112  112  113 1   
   113  112  119 1   
   114  113  114 1   
   115  113  116 1   
   116  113  120 1   
   117  114  115 2   
   118  114  126 1   
   119  116  117 1   
   120  116  118 1   
   121  116  121 1   
   122  117  123 1   
   123  117  124 1   
   124  117  125 1   
   125  118  122 1   
   126  126  127 1   
   127  126  133 1   
   128  127  128 1   
   129  127  130 1   
   130  127  134 1   
   131  128  129 2   
   132  128  140 1   
   133  130  131 1   
   134  130  132 1   
   135  130  135 1   
   136  131  137 1   
   137  131  138 1   
   138  131  139 1   
   139  132  136 1   
   140  140  141 1   
   141  140  149 1   
   142  141  142 1   
   143  141  144 1   
   144  141  150 1   
   145  142  143 2   
   146  142  162 1   
   147  144  145 1   
   148  144  151 1   
   149  144  152 1   
   150  145  146 1   
   151  145  153 1   
   152  145  154 1   
   153  146  147 1   
   154  146  155 1   
   155  146  156 1   
   156  147  148 1   
   157  147  157 1   
   158  147  158 1   
   159  148  159 1   
   160  148  160 1   
   161  148  161 1   
   162  162  163 1   
   163  162  171 1   
   164  163  164 1   
   165  163  166 1   
   166  163  172 1   
   167  164  165 2   
   168  164  177 1   
   169  166  167 1   
   170  166  173 1   
   171  166  174 1   
   172  167  168 1   
   173  167  175 1   
   174  167  176 1   
   175  168  169 1   
   176  168  170 1   
   177  177  178 1   
   178  177  182 1   
   179  178  179 1   
   180  178  180 1   
   181  178  181 1   
   182  184  185 1   
   183  184  186 1   
   184  187  188 1   
   185  187  189 1   
   186  190  191 1   
   187  190  192 1   
   188  193  194 1   
   189  193  195 1   
   190  196  197 1   
   191  196  198 1   
@<TRIPOS>SUBSTRUCTURE
     1 MOL         1 TEMP              0 ****  ****    0 ROOT
