@<TRIPOS>MOLECULE
MOL
  192   187     1     0     0
SMALL
resp


@<TRIPOS>ATOM
      1 C1          0.4800    6.5120    3.1000 c3        1 MOL     -0.504119
      2 C2          0.3280    5.4360    2.0530 c         1 MOL      0.742805
      3 O1          0.1020    4.2870    2.4690 o         1 MOL     -0.662999
      4 H1         -0.4000    6.5200    3.7430 hc        1 MOL      0.130005
      5 H2          1.3670    6.3120    3.7010 hc        1 MOL      0.130005
      6 H3          0.5820    7.4820    2.6120 hc        1 MOL      0.130005
      7 N1          0.5190    5.7220    0.7710 n         1 MOL     -0.460692
      8 C3          0.3690    4.7180   -0.3260 c3        1 MOL     -0.005861
      9 C4          1.7300    4.2430   -0.8610 c         1 MOL      0.589061
     10 O2          1.8810    3.9290   -2.0580 o         1 MOL     -0.510574
     11 C5         -0.6550    5.1560   -1.4260 c3        1 MOL     -0.208871
     12 C6         -0.4210    6.4850   -2.1230 c         1 MOL      0.720692
     13 O3          0.3210    7.3790   -1.6800 o         1 MOL     -0.669107
     14 O4         -1.0110    6.6250   -3.2310 o         1 MOL     -0.669107
     15 H4          0.5910    6.6880    0.4770 hn        1 MOL      0.254413
     16 H5         -0.0700    3.8430    0.1540 h1        1 MOL      0.134501
     17 H6         -1.6280    5.2020   -0.9310 hc        1 MOL      0.050642
     18 H7         -0.7440    4.3330   -2.1370 hc        1 MOL      0.050642
     19 N2          2.6950    4.0440    0.0430 n         1 MOL     -0.542325
     20 C7          4.1230    3.6170   -0.2010 c3        1 MOL      0.375923
     21 C8          4.5550    2.6040    0.8120 c         1 MOL      0.598355
     22 O5          4.7770    2.9530    1.9710 o         1 MOL     -0.573252
     23 C9          4.9420    4.9210   -0.2490 c3        1 MOL     -0.305744
     24 C10         6.2040    4.6650   -0.9500 c3        1 MOL      0.146050
     25 C11         6.8060    5.9620   -1.5030 c3        1 MOL      0.090939
     26 C12         8.3230    5.5660   -1.7700 c3        1 MOL     -0.109643
     27 N3          8.9300    6.7030   -2.4920 n4        1 MOL     -0.262461
     28 H8          2.4670    4.2930    0.9990 hn        1 MOL      0.251867
     29 H9          4.1880    3.1550   -1.1810 h1        1 MOL     -0.008225
     30 H10         5.2050    5.2570    0.7480 hc        1 MOL      0.066801
     31 H11         4.3930    5.6760   -0.8120 hc        1 MOL      0.066801
     32 H12         6.0800    4.0840   -1.8590 hc        1 MOL      0.004040
     33 H13         6.8870    4.1530   -0.2820 hc        1 MOL      0.004040
     34 H14         6.8180    6.6670   -0.6720 hc        1 MOL      0.006065
     35 H15         6.2090    6.4450   -2.2800 hc        1 MOL      0.006065
     36 H16         8.3070    4.6560   -2.3730 hx        1 MOL      0.118584
     37 H17         8.7390    5.3890   -0.7860 hx        1 MOL      0.118584
     38 H18         8.6610    6.7050   -3.4670 hn        1 MOL      0.303684
     39 H19         8.6460    7.6070   -2.1440 hn        1 MOL      0.303684
     40 H20         9.9410    6.6540   -2.4660 hn        1 MOL      0.303684
     41 N4          4.7010    1.2860    0.5110 n         1 MOL     -0.636989
     42 C13         4.6310    0.6310   -0.8600 c3        1 MOL     -0.048217
     43 C14         5.6020    1.1660   -1.9550 c         1 MOL      0.706793
     44 O6          5.2150    1.4910   -3.0780 o         1 MOL     -0.557814
     45 C15         3.2220    0.3320   -1.3620 c3        1 MOL     -0.255617
     46 C16         2.2060   -0.1840   -0.3060 c         1 MOL      0.637002
     47 O7          2.5880   -0.7100    0.7940 o         1 MOL     -0.661427
     48 O8          1.0190    0.0480   -0.4960 o         1 MOL     -0.661427
     49 H21         4.7840    0.6800    1.3250 hn        1 MOL      0.374885
     50 H22         5.0480   -0.3750   -0.7910 h1        1 MOL      0.109695
     51 H23         3.2770   -0.3250   -2.2330 hc        1 MOL      0.130750
     52 H24         2.8470    1.2600   -1.8100 hc        1 MOL      0.130750
     53 N5          6.9060    1.4040   -1.6850 n         1 MOL     -0.685830
     54 C17         7.6300    0.7610   -0.4970 c3        1 MOL      0.165464
     55 C18         8.3780   -0.5170   -0.9280 c         1 MOL      0.537971
     56 O9          8.5250   -0.8530   -2.0670 o         1 MOL     -0.588912
     57 H25         7.4530    1.7420   -2.4640 hn        1 MOL      0.334595
     58 H26         6.9230    0.5280    0.2930 h1        1 MOL     -0.006279
     59 H27         8.3630    1.4780   -0.1440 h1        1 MOL     -0.006279
     60 N6          8.7520   -1.4490   -0.1620 n         1 MOL     -0.365297
     61 C19         8.7080   -1.3820    1.3110 c3        1 MOL     -0.130792
     62 C20         7.3930   -1.8880    1.9520 c         1 MOL      0.541660
     63 O10         7.2560   -1.9330    3.1760 o         1 MOL     -0.566749
     64 C21         9.9170   -2.0290    1.9850 c3        1 MOL     -0.115451
     65 C22        10.2140   -3.5540    1.6140 c         1 MOL      0.692772
     66 O11        11.3010   -4.0330    2.0430 o         1 MOL     -0.661854
     67 O12         9.3490   -4.1430    0.9180 o         1 MOL     -0.661854
     68 H28         9.1410   -2.2330   -0.6620 hn        1 MOL      0.308406
     69 H29         8.7950   -0.3320    1.5890 h1        1 MOL      0.066928
     70 H30         9.7970   -1.9300    3.0640 hc        1 MOL      0.029977
     71 H31        10.8350   -1.5080    1.7390 hc        1 MOL      0.029977
     72 N7          6.4050   -2.2650    1.1680 n         1 MOL     -0.205632
     73 C23         5.0500   -2.6260    1.4970 c3        1 MOL     -0.110510
     74 C24         4.2140   -3.2920    0.3420 c         1 MOL      0.613659
     75 O13         4.6510   -3.2810   -0.8220 o         1 MOL     -0.519093
     76 H32         6.5540   -2.3480    0.1780 hn        1 MOL      0.196121
     77 H33         4.6620   -1.6860    1.8800 h1        1 MOL      0.055373
     78 H34         5.1120   -3.3040    2.3480 h1        1 MOL      0.055373
     79 N8          3.1280   -3.9470    0.6390 n         1 MOL     -0.516709
     80 C25         2.1680   -4.5740   -0.3270 c3        1 MOL     -0.108454
     81 C26         0.9570   -3.5950   -0.6010 c         1 MOL      0.853447
     82 O14         0.5500   -2.7850    0.2530 o         1 MOL     -0.797135
     83 C27         1.6600   -5.8950    0.1520 c3        1 MOL      0.542289
     84 C28         0.9640   -6.6920   -0.8960 c3        1 MOL     -0.553755
     85 O15         0.7950   -5.7160    1.2130 oh        1 MOL     -0.635747
     86 H35         2.8040   -3.8240    1.5860 hn        1 MOL      0.222225
     87 H36         2.7570   -4.7880   -1.2240 h1        1 MOL      0.109273
     88 H37         2.4920   -6.4650    0.5670 h1        1 MOL     -0.026349
     89 H38         1.2860   -5.5460    2.0270 ho        1 MOL      0.386173
     90 H39        -0.0330   -6.3100   -1.1060 hc        1 MOL      0.150332
     91 H40         1.5910   -6.7800   -1.7950 hc        1 MOL      0.150332
     92 H41         0.7380   -7.6250   -0.3940 hc        1 MOL      0.150332
     93 N9          0.4740   -3.6940   -1.8260 n         1 MOL     -0.614236
     94 C29        -0.6920   -2.9390   -2.2840 c3        1 MOL      0.077015
     95 C30        -1.8300   -3.8310   -2.4540 c         1 MOL      0.473449
     96 O16        -1.7100   -4.8520   -3.1170 o         1 MOL     -0.527135
     97 C31        -0.3270   -2.3410   -3.7410 c3        1 MOL      0.186658
     98 C32         0.9000   -1.4020   -3.7160 c3        1 MOL      0.056180
     99 C33        -1.4660   -1.5770   -4.4680 c3        1 MOL     -0.274321
    100 C34         1.6430   -1.1550   -5.0730 c3        1 MOL     -0.248617
    101 H42         0.8860   -4.3890   -2.4340 hn        1 MOL      0.294233
    102 H43        -0.9170   -2.0850   -1.6400 h1        1 MOL      0.115021
    103 H44        -0.1190   -3.1280   -4.4620 hc        1 MOL      0.017182
    104 H45         1.6590   -1.9140   -3.1130 hc        1 MOL     -0.009838
    105 H46         0.7640   -0.5480   -3.0560 hc        1 MOL     -0.009838
    106 H47        -1.8400   -0.8520   -3.7470 hc        1 MOL      0.051688
    107 H48        -1.2130   -1.0780   -5.4020 hc        1 MOL      0.051688
    108 H49        -2.3110   -2.2240   -4.6780 hc        1 MOL      0.051688
    109 H50         1.1780   -0.3370   -5.6310 hc        1 MOL      0.067419
    110 H51         2.6830   -0.9010   -4.8840 hc        1 MOL      0.067419
    111 H52         1.6330   -2.0300   -5.7310 hc        1 MOL      0.067419
    112 N10        -3.0510   -3.3880   -2.0010 n         1 MOL     -0.269242
    113 C35        -4.3270   -4.1160   -2.2660 c3        1 MOL     -0.324971
    114 C36        -5.5770   -3.1920   -2.4330 c         1 MOL      0.577404
    115 O17        -6.6380   -3.7720   -2.6090 o         1 MOL     -0.513218
    116 C37        -4.5110   -5.1290   -1.0590 c3        1 MOL      0.536952
    117 C38        -4.5780   -4.3290    0.2080 c3        1 MOL     -0.479600
    118 O18        -3.4510   -6.0650   -0.8290 oh        1 MOL     -0.634984
    119 H53        -3.0470   -2.5300   -1.4490 hn        1 MOL      0.229833
    120 H54        -4.2200   -4.6040   -3.2330 h1        1 MOL      0.184561
    121 H55        -5.4000   -5.7300   -1.2340 h1        1 MOL      0.024638
    122 H56        -2.8610   -5.6300   -0.2080 ho        1 MOL      0.411045
    123 H57        -5.4870   -3.7530    0.3720 hc        1 MOL      0.103363
    124 H58        -4.4520   -5.0670    1.0050 hc        1 MOL      0.103363
    125 H59        -3.8000   -3.5800    0.3650 hc        1 MOL      0.103363
    126 N11        -5.3780   -1.8410   -2.3810 n         1 MOL     -0.465702
    127 C39        -6.5120   -0.8640   -2.2630 c3        1 MOL      0.012487
    128 C40        -7.2220   -0.9600   -0.8560 c         1 MOL      0.432549
    129 O19        -7.6390   -2.0680   -0.3560 o         1 MOL     -0.435707
    130 C41        -7.3530   -0.8890   -3.5710 c3        1 MOL      0.357020
    131 C42        -6.4010   -0.6630   -4.8120 c3        1 MOL     -0.326173
    132 O20        -8.2470    0.2260   -3.5240 oh        1 MOL     -0.637877
    133 H60        -4.4400   -1.5080   -2.2440 hn        1 MOL      0.281096
    134 H61        -6.0700    0.1280   -2.2020 h1        1 MOL      0.067573
    135 H62        -7.8450   -1.8650   -3.5670 h1        1 MOL      0.034717
    136 H63        -9.0380   -0.0410   -3.0350 ho        1 MOL      0.357994
    137 H64        -5.8380    0.2480   -4.6480 hc        1 MOL      0.100970
    138 H65        -5.6880   -1.4740   -4.9970 hc        1 MOL      0.100970
    139 H66        -6.9720   -0.5020   -5.7210 hc        1 MOL      0.100970
    140 N12        -7.5090    0.2200   -0.1810 n         1 MOL     -0.396093
    141 C43        -8.3890    0.3540    0.9230 c3        1 MOL     -0.010982
    142 C44        -7.6550   -0.1060    2.1770 c         1 MOL      0.474896
    143 O21        -8.3210   -0.6520    2.9930 o         1 MOL     -0.500217
    144 C45        -8.9720    1.8370    0.9000 c3        1 MOL     -0.246505
    145 C46        -9.3600    2.3250   -0.4910 c3        1 MOL      0.187940
    146 C47       -10.0700    3.6520   -0.5260 c3        1 MOL     -0.112615
    147 C48       -10.7680    3.8030   -1.8870 c3        1 MOL     -0.023939
    148 N13       -11.7100    5.0120   -1.9370 n4        1 MOL     -0.074859
    149 H67        -7.1230    1.0350   -0.6480 hn        1 MOL      0.243749
    150 H68        -9.2410   -0.3090    0.8140 h1        1 MOL      0.104933
    151 H69        -8.1890    2.5070    1.2780 hc        1 MOL      0.086759
    152 H70        -9.8050    1.9980    1.5880 hc        1 MOL      0.086759
    153 H71       -10.0820    1.6380   -0.9420 hc        1 MOL      0.013507
    154 H72        -8.5580    2.3820   -1.2230 hc        1 MOL      0.013507
    155 H73        -9.2740    4.3760   -0.3780 hc        1 MOL      0.046021
    156 H74       -10.7980    3.7700    0.2770 hc        1 MOL      0.046021
    157 H75       -11.4720    2.9800   -1.9830 hx        1 MOL      0.086806
    158 H76       -10.0120    3.7600   -2.6530 hx        1 MOL      0.086806
    159 H77       -12.3930    4.9840   -1.1850 hn        1 MOL      0.189995
    160 H78       -11.1790    5.8460   -1.7050 hn        1 MOL      0.189995
    161 H79       -12.2640    5.2200   -2.7500 hn        1 MOL      0.189995
    162 N14        -6.3500    0.1470    2.3240 n         1 MOL     -0.353565
    163 C49        -5.6510   -0.1960    3.5840 c3        1 MOL      0.035362
    164 C50        -5.9100    0.8200    4.7740 c         1 MOL      0.389131
    165 O22        -5.0850    1.6060    5.2190 o         1 MOL     -0.497959
    166 C51        -4.2010   -0.3340    3.1450 c3        1 MOL     -0.044118
    167 C52        -3.8630   -1.6060    2.5000 c3        1 MOL      0.021560
    168 C53        -2.3390   -1.4910    2.2640 c         1 MOL      0.634144
    169 O23        -1.8620   -0.4560    1.7060 o         1 MOL     -0.729842
    170 O24        -1.6520   -2.4450    2.6150 o         1 MOL     -0.729842
    171 H80        -5.8000    0.5810    1.6060 hn        1 MOL      0.266668
    172 H81        -5.9960   -1.1480    3.9680 h1        1 MOL      0.063042
    173 H82        -3.6220   -0.3440    4.0700 hc        1 MOL      0.033175
    174 H83        -3.9350    0.5420    2.5670 hc        1 MOL      0.033175
    175 H84        -4.4630   -1.6710    1.5980 hc        1 MOL      0.009238
    176 H85        -4.1860   -2.3940    3.1900 hc        1 MOL      0.009238
    177 N15        -7.1720    0.8350    5.2780 n         1 MOL     -0.229267
    178 C54        -7.6750    1.7710    6.3110 c3        1 MOL     -0.165803
    179 H86        -8.7630    1.8110    6.2660 h1        1 MOL      0.090498
    180 H87        -7.3640    1.4250    7.2970 h1        1 MOL      0.090498
    181 H88        -7.2680    2.7660    6.1300 h1        1 MOL      0.090498
    182 H89        -7.7380    0.1020    4.8800 hn        1 MOL      0.213306
    183 Ca1         0.6310   -1.0750    2.2240 Ca        1 MOL      1.795663
    184 O25         0.6110    1.6090    2.2760 oh        1 MOL     -0.882790
    185 H90         1.0100    2.1160    2.9790 ho        1 MOL      0.435214
    186 H91        -0.0460    2.1980    1.9000 ho        1 MOL      0.435214
    187 O26         2.5940   -0.5140    4.0690 oh        1 MOL     -0.882790
    188 H92         2.8470    0.2030    4.6500 ho        1 MOL      0.435214
    189 H93         3.2980   -1.1650    4.1700 ho        1 MOL      0.435214
    190 O27        -0.5090   -0.2680    4.4610 oh        1 MOL     -0.882790
    191 H94        -0.4520   -0.7130    5.3050 ho        1 MOL      0.435214
    192 H95        -0.6560    0.6530    4.6830 ho        1 MOL      0.435214
@<TRIPOS>BOND
     1    1    2 1   
     2    1    4 1   
     3    1    5 1   
     4    1    6 1   
     5    2    3 2   
     6    2    7 1   
     7    7    8 1   
     8    7   15 1   
     9    8    9 1   
    10    8   11 1   
    11    8   16 1   
    12    9   10 2   
    13    9   19 1   
    14   11   12 1   
    15   11   17 1   
    16   11   18 1   
    17   12   13 1   
    18   12   14 1   
    19   19   20 1   
    20   19   28 1   
    21   20   21 1   
    22   20   23 1   
    23   20   29 1   
    24   21   22 2   
    25   21   41 1   
    26   23   24 1   
    27   23   30 1   
    28   23   31 1   
    29   24   25 1   
    30   24   32 1   
    31   24   33 1   
    32   25   26 1   
    33   25   34 1   
    34   25   35 1   
    35   26   27 1   
    36   26   36 1   
    37   26   37 1   
    38   27   38 1   
    39   27   39 1   
    40   27   40 1   
    41   41   42 1   
    42   41   49 1   
    43   42   43 1   
    44   42   45 1   
    45   42   50 1   
    46   43   44 2   
    47   43   53 1   
    48   45   46 1   
    49   45   51 1   
    50   45   52 1   
    51   46   47 1   
    52   46   48 1   
    53   53   54 1   
    54   53   57 1   
    55   54   55 1   
    56   54   58 1   
    57   54   59 1   
    58   55   56 2   
    59   55   60 1   
    60   60   61 1   
    61   60   68 1   
    62   61   62 1   
    63   61   64 1   
    64   61   69 1   
    65   62   63 2   
    66   62   72 1   
    67   64   65 1   
    68   64   70 1   
    69   64   71 1   
    70   65   66 1   
    71   65   67 1   
    72   72   73 1   
    73   72   76 1   
    74   73   74 1   
    75   73   77 1   
    76   73   78 1   
    77   74   75 2   
    78   74   79 1   
    79   79   80 1   
    80   79   86 1   
    81   80   81 1   
    82   80   83 1   
    83   80   87 1   
    84   81   82 2   
    85   81   93 1   
    86   83   84 1   
    87   83   85 1   
    88   83   88 1   
    89   84   90 1   
    90   84   91 1   
    91   84   92 1   
    92   85   89 1   
    93   93   94 1   
    94   93  101 1   
    95   94   95 1   
    96   94   97 1   
    97   94  102 1   
    98   95   96 2   
    99   95  112 1   
   100   97   98 1   
   101   97   99 1   
   102   97  103 1   
   103   98  100 1   
   104   98  104 1   
   105   98  105 1   
   106   99  106 1   
   107   99  107 1   
   108   99  108 1   
   109  100  109 1   
   110  100  110 1   
   111  100  111 1   
   112  112  113 1   
   113  112  119 1   
   114  113  114 1   
   115  113  116 1   
   116  113  120 1   
   117  114  115 2   
   118  114  126 1   
   119  116  117 1   
   120  116  118 1   
   121  116  121 1   
   122  117  123 1   
   123  117  124 1   
   124  117  125 1   
   125  118  122 1   
   126  126  127 1   
   127  126  133 1   
   128  127  128 1   
   129  127  130 1   
   130  127  134 1   
   131  128  129 2   
   132  128  140 1   
   133  130  131 1   
   134  130  132 1   
   135  130  135 1   
   136  131  137 1   
   137  131  138 1   
   138  131  139 1   
   139  132  136 1   
   140  140  141 1   
   141  140  149 1   
   142  141  142 1   
   143  141  144 1   
   144  141  150 1   
   145  142  143 2   
   146  142  162 1   
   147  144  145 1   
   148  144  151 1   
   149  144  152 1   
   150  145  146 1   
   151  145  153 1   
   152  145  154 1   
   153  146  147 1   
   154  146  155 1   
   155  146  156 1   
   156  147  148 1   
   157  147  157 1   
   158  147  158 1   
   159  148  159 1   
   160  148  160 1   
   161  148  161 1   
   162  162  163 1   
   163  162  171 1   
   164  163  164 1   
   165  163  166 1   
   166  163  172 1   
   167  164  165 2   
   168  164  177 1   
   169  166  167 1   
   170  166  173 1   
   171  166  174 1   
   172  167  168 1   
   173  167  175 1   
   174  167  176 1   
   175  168  169 1   
   176  168  170 1   
   177  177  178 1   
   178  177  182 1   
   179  178  179 1   
   180  178  180 1   
   181  178  181 1   
   182  184  185 1   
   183  184  186 1   
   184  187  188 1   
   185  187  189 1   
   186  190  191 1   
   187  190  192 1   
@<TRIPOS>SUBSTRUCTURE
     1 MOL         1 TEMP              0 ****  ****    0 ROOT
