@<TRIPOS>MOLECULE
MOL
  192   187     1     0     0
SMALL
resp


@<TRIPOS>ATOM
      1 C1          9.1710    0.6890    1.6820 c3        1 MOL     -0.468554
      2 C2          7.9930    0.2160    0.8160 c         1 MOL      0.778383
      3 O1          6.9120    0.0770    1.4000 o         1 MOL     -0.686752
      4 H1          8.7910    1.1390    2.5990 hc        1 MOL      0.117141
      5 H2          9.8040   -0.1630    1.9320 hc        1 MOL      0.117141
      6 H3          9.7550    1.4260    1.1310 hc        1 MOL      0.117141
      7 N1          8.2520   -0.2090   -0.4130 n         1 MOL     -0.620898
      8 C3          7.4090   -0.5930   -1.5340 c3        1 MOL      0.325654
      9 C4          6.9590   -2.0860   -1.4610 c         1 MOL      0.509292
     10 O2          7.0750   -2.7780   -2.4800 o         1 MOL     -0.508702
     11 C5          8.1050   -0.1990   -2.9030 c3        1 MOL     -0.224990
     12 C6          8.7320    1.1600   -2.7520 c         1 MOL      0.742398
     13 O3          9.8850    1.3720   -2.2810 o         1 MOL     -0.656585
     14 O4          7.9910    2.1050   -3.0810 o         1 MOL     -0.656585
     15 H4          9.2270   -0.1210   -0.6920 hn        1 MOL      0.260778
     16 H5          6.4760   -0.0310   -1.4650 h1        1 MOL     -0.007033
     17 H6          7.3610   -0.2300   -3.6900 hc        1 MOL      0.044791
     18 H7          8.8550   -0.9750   -3.0520 hc        1 MOL      0.044791
     19 N2          6.6040   -2.5040   -0.2290 n         1 MOL     -0.538433
     20 C7          6.0500   -3.8060    0.2310 c3        1 MOL      0.402319
     21 C8          4.5560   -4.1280   -0.0220 c         1 MOL      0.379543
     22 O5          4.2780   -5.1860   -0.5880 o         1 MOL     -0.550611
     23 C9          6.3780   -4.1600    1.7340 c3        1 MOL     -0.228254
     24 C10         7.8370   -4.1540    2.1960 c3        1 MOL      0.019556
     25 C11         7.8430   -4.6060    3.6620 c3        1 MOL      0.038685
     26 C12         9.2940   -4.6350    4.1460 c3        1 MOL      0.094220
     27 N3          9.4410   -5.0030    5.5650 n4        1 MOL     -0.273596
     28 H8          6.5580   -1.7570    0.4500 hn        1 MOL      0.247440
     29 H9          6.5370   -4.5540   -0.4000 h1        1 MOL      0.007627
     30 H10         5.9720   -5.1660    1.8690 hc        1 MOL      0.053493
     31 H11         5.7640   -3.5680    2.4020 hc        1 MOL      0.053493
     32 H12         8.2400   -3.1400    2.1400 hc        1 MOL      0.015577
     33 H13         8.4510   -4.7450    1.5280 hc        1 MOL      0.015577
     34 H14         7.4080   -5.6090    3.7340 hc        1 MOL      0.014445
     35 H15         7.2970   -3.9790    4.3720 hc        1 MOL      0.014445
     36 H16         9.8170   -3.6910    3.9550 hx        1 MOL      0.051953
     37 H17         9.8210   -5.3580    3.5360 hx        1 MOL      0.051953
     38 H18         8.8430   -4.4210    6.1430 hn        1 MOL      0.247574
     39 H19         9.1480   -5.9520    5.7340 hn        1 MOL      0.247574
     40 H20        10.3600   -4.7510    5.8900 hn        1 MOL      0.247574
     41 N4          3.6740   -3.1870    0.0620 n         1 MOL     -0.308106
     42 C13         3.7470   -1.8980    0.7640 c3        1 MOL     -0.167386
     43 C14         3.9420   -0.6850   -0.1780 c         1 MOL      0.466280
     44 O6          3.9850   -0.8280   -1.3980 o         1 MOL     -0.455183
     45 C15         2.5630   -1.6750    1.7300 c3        1 MOL     -0.119836
     46 C16         1.2530   -1.6420    0.9930 c         1 MOL      0.825282
     47 O7          0.9900   -0.8240    0.0670 o         1 MOL     -0.790604
     48 O8          0.3370   -2.3620    1.4420 o         1 MOL     -0.790604
     49 H21         2.8520   -3.4860   -0.4240 hn        1 MOL      0.311840
     50 H22         4.5830   -1.9350    1.4560 h1        1 MOL      0.094359
     51 H23         2.6190   -0.7760    2.3450 hc        1 MOL      0.042369
     52 H24         2.6060   -2.4820    2.4710 hc        1 MOL      0.042369
     53 N5          4.0990    0.5160    0.4630 n         1 MOL     -0.089590
     54 C17         4.2240    1.7670   -0.2500 c3        1 MOL     -0.238476
     55 C18         2.9280    2.2900   -0.9320 c         1 MOL      0.342890
     56 O9          1.7620    1.9970   -0.5260 o         1 MOL     -0.281528
     57 H25         3.9980    0.6660    1.4550 hn        1 MOL      0.233066
     58 H26         5.0020    1.8320   -1.0110 h1        1 MOL      0.128861
     59 H27         4.4160    2.5090    0.5240 h1        1 MOL      0.128861
     60 N6          3.1090    3.2490   -1.8420 n         1 MOL     -0.320717
     61 C19         2.0600    4.1780   -2.3940 c3        1 MOL      0.165700
     62 C20         2.5530    5.6660   -2.3730 c         1 MOL      0.471727
     63 O10         3.7340    5.9800   -2.3660 o         1 MOL     -0.539658
     64 C21         1.8400    3.7290   -3.8640 c3        1 MOL     -0.459942
     65 C22         1.3330    2.3210   -3.8680 c         1 MOL      0.759153
     66 O11         2.0250    1.4790   -4.4010 o         1 MOL     -0.658246
     67 O12         0.2240    2.0930   -3.3520 o         1 MOL     -0.658246
     68 H28         4.0520    3.6040   -1.9540 hn        1 MOL      0.286498
     69 H29         1.1090    4.0890   -1.8660 h1        1 MOL     -0.051520
     70 H30         2.7730    3.9200   -4.3980 hc        1 MOL      0.125588
     71 H31         1.0890    4.3040   -4.4160 hc        1 MOL      0.125588
     72 N7          1.7250    6.6500   -2.4450 n         1 MOL     -0.383336
     73 C23         0.2240    6.5080   -2.3940 c3        1 MOL     -0.015715
     74 C24        -0.2400    6.2160   -0.9990 c         1 MOL      0.709639
     75 O13         0.4390    6.4340    0.0240 o         1 MOL     -0.548644
     76 H32         2.1150    7.5740   -2.3800 hn        1 MOL      0.305790
     77 H33        -0.2790    5.8800   -3.1360 h1        1 MOL      0.035617
     78 H34        -0.1240    7.5370   -2.5350 h1        1 MOL      0.035617
     79 N8         -1.4700    5.7660   -0.9970 n         1 MOL     -0.733970
     80 C25        -2.0980    5.2720    0.2780 c3        1 MOL      0.179277
     81 C26        -1.4120    3.9630    0.7350 c         1 MOL      0.736253
     82 O14        -0.9180    3.1220   -0.0440 o         1 MOL     -0.729600
     83 C27        -3.6510    4.9570    0.2300 c3        1 MOL      0.521794
     84 C28        -4.4730    6.2540    0.3680 c3        1 MOL     -0.428493
     85 O15        -4.1570    4.0290    1.2010 oh        1 MOL     -0.662691
     86 H35        -1.9840    5.7220   -1.8700 hn        1 MOL      0.355639
     87 H36        -1.9910    6.0090    1.0650 h1        1 MOL      0.022376
     88 H37        -3.7900    4.6150   -0.7950 h1        1 MOL     -0.059262
     89 H38        -4.9470    3.6120    0.8530 ho        1 MOL      0.350431
     90 H39        -4.3390    6.6690    1.3620 hc        1 MOL      0.103184
     91 H40        -4.2360    6.8010   -0.5440 hc        1 MOL      0.103184
     92 H41        -5.5090    5.9240    0.2880 hc        1 MOL      0.103184
     93 N9         -1.2620    3.8930    2.1040 n         1 MOL     -0.612132
     94 C29        -0.7790    2.6090    2.7800 c3        1 MOL     -0.016940
     95 C30        -1.3760    1.2950    2.2820 c         1 MOL      0.542190
     96 O16        -1.0690    0.7660    1.2230 o         1 MOL     -0.493356
     97 C31         0.7800    2.6440    2.6850 c3        1 MOL      0.812579
     98 C32         1.5290    4.0040    2.6280 c3        1 MOL      0.017507
     99 C33         1.2050    1.7740    3.9090 c3        1 MOL     -0.411644
    100 C34         1.3470    4.9460    3.8160 c3        1 MOL     -0.463986
    101 H42        -1.8160    4.5060    2.6830 hn        1 MOL      0.315319
    102 H43        -0.8990    2.7320    3.8560 h1        1 MOL      0.017115
    103 H44         1.0290    2.1150    1.7660 hc        1 MOL     -0.340186
    104 H45         1.1850    4.4740    1.7090 hc        1 MOL     -0.001289
    105 H46         2.5640    3.6720    2.4860 hc        1 MOL     -0.001289
    106 H47         1.0580    2.3270    4.8400 hc        1 MOL      0.058297
    107 H48         0.6370    0.8420    3.9690 hc        1 MOL      0.058297
    108 H49         2.2490    1.5190    3.7600 hc        1 MOL      0.058297
    109 H50         0.2770    5.1320    3.9480 hc        1 MOL      0.110058
    110 H51         1.9200    4.5700    4.6670 hc        1 MOL      0.110058
    111 H52         1.7720    5.9140    3.5630 hc        1 MOL      0.110058
    112 N10        -2.2050    0.6730    3.1410 n         1 MOL     -0.499999
    113 C35        -2.6550   -0.7210    2.9530 c3        1 MOL      0.141077
    114 C36        -4.1770   -0.9320    2.8580 c         1 MOL      0.468166
    115 O17        -4.5840   -2.0450    3.1470 o         1 MOL     -0.573678
    116 C37        -2.1070   -1.5990    4.0640 c3        1 MOL      0.381223
    117 C38        -2.3680   -1.1100    5.5010 c3        1 MOL     -0.214574
    118 O18        -0.7030   -1.5950    4.0630 oh        1 MOL     -0.612166
    119 H53        -2.3290    1.1520    4.0200 hn        1 MOL      0.254461
    120 H54        -2.1540   -1.1720    2.1020 h1        1 MOL      0.061837
    121 H55        -2.4090   -2.6320    3.9030 h1        1 MOL      0.006721
    122 H56        -0.5170   -1.7900    3.1380 ho        1 MOL      0.388104
    123 H57        -2.0120   -0.0750    5.5930 hc        1 MOL      0.043133
    124 H58        -3.4280   -1.0090    5.6940 hc        1 MOL      0.043133
    125 H59        -1.8850   -1.7100    6.2610 hc        1 MOL      0.043133
    126 N11        -4.9180    0.1550    2.5550 n         1 MOL     -0.219436
    127 C39        -6.3960    0.1670    2.5780 c3        1 MOL     -0.124631
    128 C40        -6.9830   -0.4950    1.3460 c         1 MOL      0.559237
    129 O19        -7.6090    0.1570    0.5070 o         1 MOL     -0.511370
    130 C41        -7.0520    1.5520    2.8670 c3        1 MOL      0.262314
    131 C42        -6.5630    2.2120    4.1810 c3        1 MOL     -0.311562
    132 O20        -6.6920    2.5330    1.8890 oh        1 MOL     -0.514636
    133 H60        -4.4290    1.0320    2.6620 hn        1 MOL      0.228461
    134 H61        -6.7080   -0.4500    3.4130 h1        1 MOL      0.086040
    135 H62        -8.1220    1.3680    2.8350 h1        1 MOL      0.031286
    136 H63        -7.4480    2.6610    1.3110 ho        1 MOL      0.355009
    137 H64        -6.7680    1.5540    5.0220 hc        1 MOL      0.088039
    138 H65        -5.4820    2.3380    4.1740 hc        1 MOL      0.088039
    139 H66        -7.0850    3.1610    4.3120 hc        1 MOL      0.088039
    140 N12        -6.7780   -1.8070    1.2660 n         1 MOL     -0.695689
    141 C43        -6.4780   -2.6270    0.1190 c3        1 MOL      0.457680
    142 C44        -5.1460   -2.3610   -0.5790 c         1 MOL      0.603815
    143 O21        -4.5220   -1.3080   -0.4290 o         1 MOL     -0.553851
    144 C45        -7.6770   -2.6070   -0.8280 c3        1 MOL     -0.475422
    145 C46        -9.1100   -2.5420   -0.2070 c3        1 MOL      0.326115
    146 C47       -10.1660   -2.5100   -1.2570 c3        1 MOL     -0.001690
    147 C48       -11.6210   -2.6410   -0.7940 c3        1 MOL     -0.017047
    148 N13       -12.2400   -1.4370   -0.1130 n4        1 MOL     -0.206192
    149 H67        -6.4680   -2.1460    2.1750 hn        1 MOL      0.333319
    150 H68        -6.3560   -3.6510    0.4830 h1        1 MOL     -0.003560
    151 H69        -7.5840   -3.5160   -1.4220 hc        1 MOL      0.092824
    152 H70        -7.5760   -1.7520   -1.4920 hc        1 MOL      0.092824
    153 H71        -9.2510   -1.6490    0.4140 hc        1 MOL     -0.058053
    154 H72        -9.2490   -3.4140    0.4280 hc        1 MOL     -0.058053
    155 H73        -9.8910   -3.3120   -1.9340 hc        1 MOL      0.037870
    156 H74       -10.1460   -1.5670   -1.8160 hc        1 MOL      0.037870
    157 H75       -11.6430   -3.4840   -0.1090 hx        1 MOL      0.074353
    158 H76       -12.1890   -2.9210   -1.6870 hx        1 MOL      0.074353
    159 H77       -13.1970   -1.5120    0.1840 hn        1 MOL      0.216896
    160 H78       -11.7170   -1.2100    0.7150 hn        1 MOL      0.216896
    161 H79       -12.1860   -0.6200   -0.7130 hn        1 MOL      0.216896
    162 N14        -4.7730   -3.2390   -1.5460 n         1 MOL     -0.829300
    163 C49        -3.5320   -3.0910   -2.2720 c3        1 MOL      0.852527
    164 C50        -2.2070   -2.8620   -1.4010 c         1 MOL     -0.076034
    165 O22        -1.5680   -1.8190   -1.6590 o         1 MOL     -0.319957
    166 C51        -3.2290   -4.2310   -3.2450 c3        1 MOL      0.077264
    167 C52        -4.1320   -4.1030   -4.4990 c3        1 MOL     -0.301444
    168 C53        -4.0130   -5.3150   -5.3540 c         1 MOL      0.689685
    169 O23        -3.3760   -5.2910   -6.4720 o         1 MOL     -0.621479
    170 O24        -4.5610   -6.4260   -5.0770 o         1 MOL     -0.621479
    171 H80        -5.3690   -4.0400   -1.6390 hn        1 MOL      0.361530
    172 H81        -3.5330   -2.2320   -2.9340 h1        1 MOL     -0.164290
    173 H82        -3.4930   -5.1960   -2.8110 hc        1 MOL      0.001576
    174 H83        -2.1990   -4.2290   -3.5910 hc        1 MOL      0.001576
    175 H84        -3.8460   -3.1980   -5.0280 hc        1 MOL      0.043442
    176 H85        -5.1750   -4.0760   -4.1710 hc        1 MOL      0.043442
    177 N15        -1.8390   -3.6350   -0.4130 n         1 MOL     -0.194483
    178 C54        -2.4230   -4.8760    0.0820 c3        1 MOL     -0.028386
    179 H86        -1.9510   -5.7230   -0.4150 h1        1 MOL      0.029912
    180 H87        -2.2610   -4.9510    1.1580 h1        1 MOL      0.029912
    181 H88        -3.4920   -4.8840   -0.1260 h1        1 MOL      0.029912
    182 H89        -1.2400   -3.2240    0.2870 hn        1 MOL      0.333067
    183 Ca1        -0.5330    0.6910   -1.3010 Ca        1 MOL      1.758140
    184 O25        -3.1250    0.9810   -0.6970 oh        1 MOL     -0.933312
    185 H90        -3.6230    1.5480   -1.2940 ho        1 MOL      0.437944
    186 H91        -3.6450    0.1790   -0.6530 ho        1 MOL      0.437944
    187 O26         1.2130   -0.8790   -2.7330 oh        1 MOL     -0.933312
    188 H92         1.4770   -1.1820   -3.5970 ho        1 MOL      0.437944
    189 H93         1.9670   -1.0490   -2.1690 ho        1 MOL      0.437944
    190 O27        -2.0890    0.2140   -3.4050 oh        1 MOL     -0.933312
    191 H94        -1.8560   -0.4830   -4.0200 ho        1 MOL      0.437944
    192 H95        -3.0290    0.3570   -3.5500 ho        1 MOL      0.437944
@<TRIPOS>BOND
     1    1    2 1   
     2    1    4 1   
     3    1    5 1   
     4    1    6 1   
     5    2    3 2   
     6    2    7 1   
     7    7    8 1   
     8    7   15 1   
     9    8    9 1   
    10    8   11 1   
    11    8   16 1   
    12    9   10 2   
    13    9   19 1   
    14   11   12 1   
    15   11   17 1   
    16   11   18 1   
    17   12   13 1   
    18   12   14 1   
    19   19   20 1   
    20   19   28 1   
    21   20   21 1   
    22   20   23 1   
    23   20   29 1   
    24   21   22 2   
    25   21   41 1   
    26   23   24 1   
    27   23   30 1   
    28   23   31 1   
    29   24   25 1   
    30   24   32 1   
    31   24   33 1   
    32   25   26 1   
    33   25   34 1   
    34   25   35 1   
    35   26   27 1   
    36   26   36 1   
    37   26   37 1   
    38   27   38 1   
    39   27   39 1   
    40   27   40 1   
    41   41   42 1   
    42   41   49 1   
    43   42   43 1   
    44   42   45 1   
    45   42   50 1   
    46   43   44 2   
    47   43   53 1   
    48   45   46 1   
    49   45   51 1   
    50   45   52 1   
    51   46   47 1   
    52   46   48 1   
    53   53   54 1   
    54   53   57 1   
    55   54   55 1   
    56   54   58 1   
    57   54   59 1   
    58   55   56 2   
    59   55   60 1   
    60   60   61 1   
    61   60   68 1   
    62   61   62 1   
    63   61   64 1   
    64   61   69 1   
    65   62   63 2   
    66   62   72 1   
    67   64   65 1   
    68   64   70 1   
    69   64   71 1   
    70   65   66 1   
    71   65   67 1   
    72   72   73 1   
    73   72   76 1   
    74   73   74 1   
    75   73   77 1   
    76   73   78 1   
    77   74   75 2   
    78   74   79 1   
    79   79   80 1   
    80   79   86 1   
    81   80   81 1   
    82   80   83 1   
    83   80   87 1   
    84   81   82 2   
    85   81   93 1   
    86   83   84 1   
    87   83   85 1   
    88   83   88 1   
    89   84   90 1   
    90   84   91 1   
    91   84   92 1   
    92   85   89 1   
    93   93   94 1   
    94   93  101 1   
    95   94   95 1   
    96   94   97 1   
    97   94  102 1   
    98   95   96 2   
    99   95  112 1   
   100   97   98 1   
   101   97   99 1   
   102   97  103 1   
   103   98  100 1   
   104   98  104 1   
   105   98  105 1   
   106   99  106 1   
   107   99  107 1   
   108   99  108 1   
   109  100  109 1   
   110  100  110 1   
   111  100  111 1   
   112  112  113 1   
   113  112  119 1   
   114  113  114 1   
   115  113  116 1   
   116  113  120 1   
   117  114  115 2   
   118  114  126 1   
   119  116  117 1   
   120  116  118 1   
   121  116  121 1   
   122  117  123 1   
   123  117  124 1   
   124  117  125 1   
   125  118  122 1   
   126  126  127 1   
   127  126  133 1   
   128  127  128 1   
   129  127  130 1   
   130  127  134 1   
   131  128  129 2   
   132  128  140 1   
   133  130  131 1   
   134  130  132 1   
   135  130  135 1   
   136  131  137 1   
   137  131  138 1   
   138  131  139 1   
   139  132  136 1   
   140  140  141 1   
   141  140  149 1   
   142  141  142 1   
   143  141  144 1   
   144  141  150 1   
   145  142  143 2   
   146  142  162 1   
   147  144  145 1   
   148  144  151 1   
   149  144  152 1   
   150  145  146 1   
   151  145  153 1   
   152  145  154 1   
   153  146  147 1   
   154  146  155 1   
   155  146  156 1   
   156  147  148 1   
   157  147  157 1   
   158  147  158 1   
   159  148  159 1   
   160  148  160 1   
   161  148  161 1   
   162  162  163 1   
   163  162  171 1   
   164  163  164 1   
   165  163  166 1   
   166  163  172 1   
   167  164  165 2   
   168  164  177 1   
   169  166  167 1   
   170  166  173 1   
   171  166  174 1   
   172  167  168 1   
   173  167  175 1   
   174  167  176 1   
   175  168  169 1   
   176  168  170 1   
   177  177  178 1   
   178  177  182 1   
   179  178  179 1   
   180  178  180 1   
   181  178  181 1   
   182  184  185 1   
   183  184  186 1   
   184  187  188 1   
   185  187  189 1   
   186  190  191 1   
   187  190  192 1   
@<TRIPOS>SUBSTRUCTURE
     1 MOL         1 TEMP              0 ****  ****    0 ROOT
