@<TRIPOS>MOLECULE
MOL
  192   187     1     0     0
SMALL
resp


@<TRIPOS>ATOM
      1 C1          9.6240    1.6300    1.4010 c3        1 MOL     -0.558622
      2 C2          8.4650    1.1910    0.4410 c         1 MOL      0.791576
      3 O1          7.2720    1.4080    0.7300 o         1 MOL     -0.700526
      4 H1          9.2390    2.3380    2.1350 hc        1 MOL      0.139634
      5 H2         10.0200    0.7540    1.9150 hc        1 MOL      0.139634
      6 H3         10.4180    2.1020    0.8220 hc        1 MOL      0.139634
      7 N1          8.7860    0.4440   -0.6520 n         1 MOL     -0.494801
      8 C3          7.7930    0.0320   -1.6360 c3        1 MOL      0.094903
      9 C4          7.4030   -1.4310   -1.3270 c         1 MOL      0.454370
     10 O2          7.4520   -2.3410   -2.1630 o         1 MOL     -0.436410
     11 C5          8.3770    0.3540   -3.0000 c3        1 MOL     -0.350104
     12 C6          9.7330   -0.3510   -3.3690 c         1 MOL      0.717186
     13 O3         10.4620   -0.7190   -2.4740 o         1 MOL     -0.638755
     14 O4          9.9610   -0.5130   -4.6260 o         1 MOL     -0.638755
     15 H4          9.7110    0.0980   -0.8540 hn        1 MOL      0.248802
     16 H5          6.9100    0.6470   -1.4840 h1        1 MOL      0.083792
     17 H6          8.4460    1.4410   -3.0050 hc        1 MOL      0.097144
     18 H7          7.6610   -0.0400   -3.7240 hc        1 MOL      0.097144
     19 N2          6.9810   -1.6110   -0.0640 n         1 MOL     -0.320011
     20 C7          6.5790   -2.9590    0.4180 c3        1 MOL      0.129722
     21 C8          5.1790   -3.3070    0.0070 c         1 MOL      0.538289
     22 O5          5.0510   -4.2890   -0.7710 o         1 MOL     -0.558815
     23 C9          6.8990   -3.1220    1.9100 c3        1 MOL      0.114665
     24 C10         8.3640   -3.3720    2.0970 c3        1 MOL     -0.150411
     25 C11         8.5200   -3.7020    3.6430 c3        1 MOL      0.202817
     26 C12         9.9640   -3.6740    4.0270 c3        1 MOL     -0.001069
     27 N3         10.0860   -3.4460    5.4570 n4        1 MOL     -0.272812
     28 H8          7.1520   -0.8660    0.5810 hn        1 MOL      0.221433
     29 H9          7.1650   -3.7350   -0.0670 h1        1 MOL      0.030859
     30 H10         6.3060   -3.9410    2.3330 hc        1 MOL     -0.028949
     31 H11         6.7060   -2.1550    2.3860 hc        1 MOL     -0.028949
     32 H12         8.8900   -2.4520    1.8210 hc        1 MOL      0.039750
     33 H13         8.6030   -4.2680    1.5250 hc        1 MOL      0.039750
     34 H14         8.0410   -4.6300    3.9440 hc        1 MOL     -0.026187
     35 H15         7.9660   -2.9140    4.1600 hc        1 MOL     -0.026187
     36 H16        10.4770   -2.8780    3.4880 hx        1 MOL      0.077026
     37 H17        10.4030   -4.6380    3.7640 hx        1 MOL      0.077026
     38 H18         9.7440   -4.2760    5.9350 hn        1 MOL      0.260228
     39 H19        11.0630   -3.3290    5.7000 hn        1 MOL      0.260228
     40 H20         9.5800   -2.6220    5.7420 hn        1 MOL      0.260228
     41 N4          4.0660   -2.6830    0.3040 n         1 MOL     -0.501067
     42 C13         4.0010   -1.4160    1.0470 c3        1 MOL     -0.013473
     43 C14         4.1290   -0.1480    0.1580 c         1 MOL      0.402372
     44 O6          4.0220   -0.2090   -1.0910 o         1 MOL     -0.492477
     45 C15         2.7040   -1.4410    1.8720 c3        1 MOL     -0.034122
     46 C16         1.4890   -1.9710    1.1440 c         1 MOL      0.637245
     47 O7          0.8820   -1.1470    0.3860 o         1 MOL     -0.667929
     48 O8          1.0160   -3.0620    1.4510 o         1 MOL     -0.667929
     49 H21         3.2160   -3.0380   -0.1160 hn        1 MOL      0.361567
     50 H22         4.8810   -1.3180    1.6910 h1        1 MOL      0.008794
     51 H23         2.5260   -0.4460    2.2760 hc        1 MOL     -0.001938
     52 H24         2.9340   -2.0310    2.7610 hc        1 MOL     -0.001938
     53 N5          4.1140    0.9550    0.8290 n         1 MOL     -0.119720
     54 C17         3.9720    2.2490    0.1790 c3        1 MOL     -0.120203
     55 C18         2.7150    2.5100   -0.5750 c         1 MOL      0.528956
     56 O9          1.6480    1.9150   -0.4180 o         1 MOL     -0.555087
     57 H25         4.5060    0.9470    1.7570 hn        1 MOL      0.237258
     58 H26         4.7930    2.4010   -0.5220 h1        1 MOL      0.096954
     59 H27         4.0840    3.0970    0.8570 h1        1 MOL      0.096954
     60 N6          2.8370    3.3940   -1.5520 n         1 MOL     -0.595795
     61 C19         1.7030    3.8320   -2.3910 c3        1 MOL      0.432360
     62 C20         2.0600    5.2970   -2.8490 c         1 MOL      0.396898
     63 O10         3.2650    5.5660   -2.9790 o         1 MOL     -0.543774
     64 C21         1.5360    2.9180   -3.5740 c3        1 MOL     -0.337434
     65 C22         0.1500    2.2790   -3.8680 c         1 MOL      0.720322
     66 O11        -0.6800    2.2910   -2.9530 o         1 MOL     -0.697399
     67 O12        -0.0930    1.7040   -4.9360 o         1 MOL     -0.697399
     68 H28         3.7770    3.7170   -1.7380 hn        1 MOL      0.317818
     69 H29         0.8280    3.9870   -1.7680 h1        1 MOL      0.025209
     70 H30         2.2190    2.0810   -3.4160 hc        1 MOL      0.094562
     71 H31         1.8710    3.3740   -4.5030 hc        1 MOL      0.094562
     72 N7          1.0970    6.1110   -3.1700 n         1 MOL     -0.421311
     73 C23        -0.3950    5.9310   -3.0780 c3        1 MOL     -0.014118
     74 C24        -0.8080    5.7800   -1.5820 c         1 MOL      0.560079
     75 O13        -0.0880    6.3270   -0.6990 o         1 MOL     -0.549602
     76 H32         1.3990    6.9370   -3.6690 hn        1 MOL      0.311368
     77 H33        -0.5950    4.9660   -3.5440 h1        1 MOL      0.078217
     78 H34        -0.9560    6.7350   -3.5550 h1        1 MOL      0.078217
     79 N8         -1.8980    5.0980   -1.2860 n         1 MOL     -0.552106
     80 C25        -2.3200    4.8910    0.1570 c3        1 MOL      0.357143
     81 C26        -1.6720    3.6460    0.7320 c         1 MOL      0.445501
     82 O14        -1.1320    2.7350    0.0900 o         1 MOL     -0.504766
     83 C27        -3.8730    4.8990    0.4220 c3        1 MOL      0.210030
     84 C28        -4.7230    3.8770   -0.2710 c3        1 MOL     -0.357696
     85 O15        -4.3680    6.1490   -0.0650 oh        1 MOL     -0.634521
     86 H35        -2.3660    4.4850   -1.9450 hn        1 MOL      0.294987
     87 H36        -1.9150    5.7090    0.7500 h1        1 MOL      0.053783
     88 H37        -4.0520    4.7410    1.4850 h1        1 MOL     -0.018695
     89 H38        -5.2820    5.9540   -0.2930 ho        1 MOL      0.408274
     90 H39        -5.7680    4.0770   -0.0330 hc        1 MOL      0.109403
     91 H40        -4.6280    3.8050   -1.3570 hc        1 MOL      0.109403
     92 H41        -4.4180    2.9460    0.2030 hc        1 MOL      0.109403
     93 N9         -1.7050    3.5670    2.0790 n         1 MOL     -0.612606
     94 C29        -1.0900    2.5100    2.8300 c3        1 MOL     -0.136040
     95 C30        -1.6450    1.1040    2.5250 c         1 MOL      0.914758
     96 O16        -1.4430    0.4270    1.5450 o         1 MOL     -0.608394
     97 C31         0.4630    2.6440    2.6960 c3        1 MOL      0.342708
     98 C32         0.9200    4.0940    3.0450 c3        1 MOL     -0.051176
     99 C33         1.1710    1.6520    3.5670 c3        1 MOL     -0.316112
    100 C34         0.4450    4.6840    4.4170 c3        1 MOL     -0.198252
    101 H42        -1.8940    4.4270    2.5820 hn        1 MOL      0.306037
    102 H43        -1.3570    2.6810    3.8650 h1        1 MOL      0.097324
    103 H44         0.9710    2.3280    1.7850 hc        1 MOL     -0.106359
    104 H45         0.6120    4.8040    2.2780 hc        1 MOL      0.052860
    105 H46         2.0080    4.1370    2.9890 hc        1 MOL      0.052860
    106 H47         0.7230    1.7250    4.5590 hc        1 MOL      0.055253
    107 H48         0.9540    0.6540    3.1850 hc        1 MOL      0.055253
    108 H49         2.2390    1.8310    3.6310 hc        1 MOL      0.055253
    109 H50        -0.5520    4.3150    4.6620 hc        1 MOL      0.047194
    110 H51         1.0820    4.3880    5.2530 hc        1 MOL      0.047194
    111 H52         0.4560    5.7660    4.3650 hc        1 MOL      0.047194
    112 N10        -2.2280    0.5730    3.6250 n         1 MOL     -0.707741
    113 C35        -2.7270   -0.8160    3.6450 c3        1 MOL     -0.036116
    114 C36        -4.0940   -1.0830    3.1390 c         1 MOL      0.480216
    115 O17        -4.4850   -2.2450    2.9700 o         1 MOL     -0.528679
    116 C37        -2.5700   -1.4020    4.9920 c3        1 MOL      0.346487
    117 C38        -3.5180   -0.6980    5.9650 c3        1 MOL     -0.179196
    118 O18        -1.3600   -1.1800    5.6840 oh        1 MOL     -0.589000
    119 H53        -2.1560    1.0520    4.5060 hn        1 MOL      0.339953
    120 H54        -2.0300   -1.4340    3.0660 h1        1 MOL      0.124244
    121 H55        -2.8450   -2.4530    4.9940 h1        1 MOL      0.013370
    122 H56        -0.7420   -1.7100    5.1760 ho        1 MOL      0.387843
    123 H57        -3.3330   -0.9000    7.0140 hc        1 MOL      0.048131
    124 H58        -3.4350    0.3890    5.9620 hc        1 MOL      0.048131
    125 H59        -4.5600   -0.9960    5.8510 hc        1 MOL      0.048131
    126 N11        -4.8370   -0.0170    2.8260 n         1 MOL     -0.281941
    127 C39        -6.1990   -0.1620    2.2230 c3        1 MOL     -0.046396
    128 C40        -6.1610   -0.7220    0.8120 c         1 MOL      0.747690
    129 O19        -5.5370   -0.1620   -0.0810 o         1 MOL     -0.539286
    130 C41        -6.9540    1.1720    2.2730 c3        1 MOL     -0.072959
    131 C42        -7.4080    1.4920    3.7100 c3        1 MOL     -0.280057
    132 O20        -6.3260    2.3450    1.7400 oh        1 MOL     -0.500194
    133 H60        -4.5040    0.9350    2.7540 hn        1 MOL      0.195220
    134 H61        -6.7650   -0.8560    2.8570 h1        1 MOL      0.093578
    135 H62        -7.8110    1.0810    1.6120 h1        1 MOL      0.184323
    136 H63        -5.6520    2.6570    2.3360 ho        1 MOL      0.410318
    137 H64        -7.7190    2.5170    3.9120 hc        1 MOL      0.089417
    138 H65        -8.1980    0.8540    4.1180 hc        1 MOL      0.089417
    139 H66        -6.5440    1.3830    4.3630 hc        1 MOL      0.089417
    140 N12        -6.7660   -1.8800    0.5820 n         1 MOL     -0.677499
    141 C43        -7.0130   -2.5430   -0.7040 c3        1 MOL      0.369063
    142 C44        -5.7310   -2.8340   -1.5990 c         1 MOL      0.402021
    143 O21        -5.7010   -2.5810   -2.7870 o         1 MOL     -0.510184
    144 C45        -8.1340   -1.7320   -1.3960 c3        1 MOL     -0.309260
    145 C46        -9.3910   -1.7020   -0.5450 c3        1 MOL      0.040160
    146 C47       -10.4040   -0.8090   -1.3000 c3        1 MOL      0.034375
    147 C48       -11.8140   -0.7970   -0.6120 c3        1 MOL     -0.033020
    148 N13       -12.4290   -2.1020   -0.5720 n4        1 MOL      0.049146
    149 H67        -7.0910   -2.4470    1.3540 hn        1 MOL      0.296478
    150 H68        -7.3830   -3.5490   -0.4960 h1        1 MOL      0.031135
    151 H69        -8.3220   -2.1660   -2.3800 hc        1 MOL      0.107526
    152 H70        -7.7110   -0.7370   -1.5710 hc        1 MOL      0.107526
    153 H71        -9.2440   -1.1360    0.3710 hc        1 MOL     -0.021291
    154 H72        -9.8100   -2.6960   -0.4000 hc        1 MOL     -0.021291
    155 H73       -10.5700   -1.0570   -2.3460 hc        1 MOL      0.045264
    156 H74        -9.9520    0.1830   -1.2970 hc        1 MOL      0.045264
    157 H75       -12.4430   -0.1820   -1.2470 hx        1 MOL      0.051511
    158 H76       -11.8250   -0.4900    0.4300 hx        1 MOL      0.051511
    159 H77       -12.6210   -2.5410   -1.4590 hn        1 MOL      0.147862
    160 H78       -11.9750   -2.6990    0.1110 hn        1 MOL      0.147862
    161 H79       -13.3440   -2.0610   -0.1580 hn        1 MOL      0.147862
    162 N14        -4.6620   -3.3480   -1.0720 n         1 MOL     -0.649362
    163 C49        -3.3620   -3.4050   -1.7370 c3        1 MOL      0.726056
    164 C50        -2.1670   -2.8990   -0.8380 c         1 MOL      0.215274
    165 O22        -1.7190   -1.8030   -1.1080 o         1 MOL     -0.570629
    166 C51        -3.0570   -4.7240   -2.4590 c3        1 MOL     -0.358786
    167 C52        -4.0510   -5.0910   -3.6170 c3        1 MOL     -0.126663
    168 C53        -3.6520   -6.4060   -4.2260 c         1 MOL      0.697337
    169 O23        -2.8540   -6.4820   -5.2310 o         1 MOL     -0.628812
    170 O24        -4.3150   -7.3420   -3.8120 o         1 MOL     -0.628812
    171 H80        -4.7260   -3.5490   -0.0820 hn        1 MOL      0.318641
    172 H81        -3.3360   -2.6930   -2.5570 h1        1 MOL      0.005433
    173 H82        -3.0710   -5.5560   -1.7460 hc        1 MOL      0.092232
    174 H83        -2.1000   -4.6680   -2.9820 hc        1 MOL      0.092232
    175 H84        -3.9130   -4.3080   -4.3570 hc        1 MOL      0.042871
    176 H85        -5.1150   -5.1530   -3.3980 hc        1 MOL      0.042871
    177 N15        -1.6370   -3.6380    0.1650 n         1 MOL     -0.363196
    178 C54        -2.0030   -4.9550    0.7090 c3        1 MOL     -0.028825
    179 H86        -1.3030   -5.7060    0.3450 h1        1 MOL      0.048304
    180 H87        -1.9650   -4.9220    1.7980 h1        1 MOL      0.048304
    181 H88        -3.0130   -5.2140    0.3880 h1        1 MOL      0.048304
    182 H89        -0.7520   -3.2590    0.4680 hn        1 MOL      0.366984
    183 Ca1        -0.5700    0.5250   -1.0200 Ca        1 MOL      1.675966
    184 O25         1.5330   -0.3160   -2.5760 oh        1 MOL     -0.904397
    185 H90         2.4080   -0.2550   -2.1990 ho        1 MOL      0.437427
    186 H91         1.5980   -1.0170   -3.2300 ho        1 MOL      0.437427
    187 O26        -3.2640    0.5990   -1.2960 oh        1 MOL     -0.904397
    188 H92        -3.3410   -0.1390   -1.8970 ho        1 MOL      0.437427
    189 H93        -4.0020    0.5110   -0.6980 ho        1 MOL      0.437427
    190 O27        -1.5580   -0.2860   -3.6170 oh        1 MOL     -0.904397
    191 H94        -1.1310   -1.0020   -4.0820 ho        1 MOL      0.437427
    192 H95        -1.3200    0.4940   -4.1180 ho        1 MOL      0.437427
@<TRIPOS>BOND
     1    1    2 1   
     2    1    4 1   
     3    1    5 1   
     4    1    6 1   
     5    2    3 2   
     6    2    7 1   
     7    7    8 1   
     8    7   15 1   
     9    8    9 1   
    10    8   11 1   
    11    8   16 1   
    12    9   10 2   
    13    9   19 1   
    14   11   12 1   
    15   11   17 1   
    16   11   18 1   
    17   12   13 1   
    18   12   14 1   
    19   19   20 1   
    20   19   28 1   
    21   20   21 1   
    22   20   23 1   
    23   20   29 1   
    24   21   22 2   
    25   21   41 1   
    26   23   24 1   
    27   23   30 1   
    28   23   31 1   
    29   24   25 1   
    30   24   32 1   
    31   24   33 1   
    32   25   26 1   
    33   25   34 1   
    34   25   35 1   
    35   26   27 1   
    36   26   36 1   
    37   26   37 1   
    38   27   38 1   
    39   27   39 1   
    40   27   40 1   
    41   41   42 1   
    42   41   49 1   
    43   42   43 1   
    44   42   45 1   
    45   42   50 1   
    46   43   44 2   
    47   43   53 1   
    48   45   46 1   
    49   45   51 1   
    50   45   52 1   
    51   46   47 1   
    52   46   48 1   
    53   53   54 1   
    54   53   57 1   
    55   54   55 1   
    56   54   58 1   
    57   54   59 1   
    58   55   56 2   
    59   55   60 1   
    60   60   61 1   
    61   60   68 1   
    62   61   62 1   
    63   61   64 1   
    64   61   69 1   
    65   62   63 2   
    66   62   72 1   
    67   64   65 1   
    68   64   70 1   
    69   64   71 1   
    70   65   66 1   
    71   65   67 1   
    72   72   73 1   
    73   72   76 1   
    74   73   74 1   
    75   73   77 1   
    76   73   78 1   
    77   74   75 2   
    78   74   79 1   
    79   79   80 1   
    80   79   86 1   
    81   80   81 1   
    82   80   83 1   
    83   80   87 1   
    84   81   82 2   
    85   81   93 1   
    86   83   84 1   
    87   83   85 1   
    88   83   88 1   
    89   84   90 1   
    90   84   91 1   
    91   84   92 1   
    92   85   89 1   
    93   93   94 1   
    94   93  101 1   
    95   94   95 1   
    96   94   97 1   
    97   94  102 1   
    98   95   96 2   
    99   95  112 1   
   100   97   98 1   
   101   97   99 1   
   102   97  103 1   
   103   98  100 1   
   104   98  104 1   
   105   98  105 1   
   106   99  106 1   
   107   99  107 1   
   108   99  108 1   
   109  100  109 1   
   110  100  110 1   
   111  100  111 1   
   112  112  113 1   
   113  112  119 1   
   114  113  114 1   
   115  113  116 1   
   116  113  120 1   
   117  114  115 2   
   118  114  126 1   
   119  116  117 1   
   120  116  118 1   
   121  116  121 1   
   122  117  123 1   
   123  117  124 1   
   124  117  125 1   
   125  118  122 1   
   126  126  127 1   
   127  126  133 1   
   128  127  128 1   
   129  127  130 1   
   130  127  134 1   
   131  128  129 2   
   132  128  140 1   
   133  130  131 1   
   134  130  132 1   
   135  130  135 1   
   136  131  137 1   
   137  131  138 1   
   138  131  139 1   
   139  132  136 1   
   140  140  141 1   
   141  140  149 1   
   142  141  142 1   
   143  141  144 1   
   144  141  150 1   
   145  142  143 2   
   146  142  162 1   
   147  144  145 1   
   148  144  151 1   
   149  144  152 1   
   150  145  146 1   
   151  145  153 1   
   152  145  154 1   
   153  146  147 1   
   154  146  155 1   
   155  146  156 1   
   156  147  148 1   
   157  147  157 1   
   158  147  158 1   
   159  148  159 1   
   160  148  160 1   
   161  148  161 1   
   162  162  163 1   
   163  162  171 1   
   164  163  164 1   
   165  163  166 1   
   166  163  172 1   
   167  164  165 2   
   168  164  177 1   
   169  166  167 1   
   170  166  173 1   
   171  166  174 1   
   172  167  168 1   
   173  167  175 1   
   174  167  176 1   
   175  168  169 1   
   176  168  170 1   
   177  177  178 1   
   178  177  182 1   
   179  178  179 1   
   180  178  180 1   
   181  178  181 1   
   182  184  185 1   
   183  184  186 1   
   184  187  188 1   
   185  187  189 1   
   186  190  191 1   
   187  190  192 1   
@<TRIPOS>SUBSTRUCTURE
     1 MOL         1 TEMP              0 ****  ****    0 ROOT
