@<TRIPOS>MOLECULE
MOL
  195   189     1     0     0
SMALL
resp


@<TRIPOS>ATOM
      1 C1         -6.5870    2.8330    0.5840 c3        1 MOL     -0.257102
      2 C2         -5.1890    2.1590    0.4540 c         1 MOL      0.500757
      3 O1         -5.0900    1.0410   -0.1170 o         1 MOL     -0.457978
      4 H1         -6.6930    3.6000   -0.1830 hc        1 MOL      0.078948
      5 H2         -7.3660    2.0820    0.4560 hc        1 MOL      0.078948
      6 H3         -6.6810    3.2890    1.5690 hc        1 MOL      0.078948
      7 N1         -3.9870    2.6920    0.7950 n         1 MOL     -0.248516
      8 C3         -3.6330    3.9150    1.4990 c3        1 MOL      0.058708
      9 C4         -3.1740    4.9820    0.4680 c         1 MOL      0.305191
     10 O2         -2.7980    6.0930    0.8590 o         1 MOL     -0.503120
     11 C5         -2.6490    3.6530    2.6710 c3        1 MOL      0.052217
     12 C6         -3.1880    2.5150    3.5530 c         1 MOL      0.551593
     13 O3         -2.7470    1.3700    3.2840 o         1 MOL     -0.663010
     14 O4         -4.0210    2.8130    4.4480 o         1 MOL     -0.663010
     15 H4         -3.1760    2.1640    0.4790 hn        1 MOL      0.017242
     16 H5         -4.5320    4.2300    2.0330 h1        1 MOL      0.051196
     17 H6         -2.5620    4.5700    3.2550 hc        1 MOL      0.000589
     18 H7         -1.7010    3.3890    2.2080 hc        1 MOL      0.000589
     19 N2         -3.0690    4.5930   -0.8090 n         1 MOL     -0.065264
     20 C7         -2.7990    5.5870   -1.8450 c3        1 MOL     -0.451508
     21 C8         -1.3530    6.0440   -2.0090 c         1 MOL      0.460624
     22 O5         -1.1520    7.0160   -2.7240 o         1 MOL     -0.544953
     23 C9         -3.4930    5.2690   -3.2210 c3        1 MOL      0.436880
     24 C10        -2.7750    4.2160   -4.0810 c3        1 MOL     -0.188784
     25 C11        -4.9450    5.0770   -3.0830 c3        1 MOL     -0.385692
     26 C12        -2.3980    2.9270   -3.4300 c3        1 MOL     -0.020391
     27 H8         -3.3280    3.6560   -1.0820 hn        1 MOL      0.126968
     28 H9         -3.2610    6.4950   -1.4660 h1        1 MOL      0.181531
     29 H10        -3.3730    6.1810   -3.8110 hc        1 MOL     -0.032890
     30 H11        -1.8390    4.6900   -4.3620 hc        1 MOL      0.034179
     31 H12        -3.3500    4.0000   -4.9870 hc        1 MOL      0.034179
     32 H13        -5.1550    5.8560   -2.3480 hc        1 MOL      0.072036
     33 H14        -5.4670    5.1860   -4.0270 hc        1 MOL      0.072036
     34 H15        -5.1270    4.0640   -2.7160 hc        1 MOL      0.072036
     35 H16        -2.0440    2.1970   -4.1640 hc        1 MOL      0.032903
     36 H17        -1.7400    2.9820   -2.5710 hc        1 MOL      0.032903
     37 H18        -3.3610    2.5160   -3.1110 hc        1 MOL      0.032903
     38 N3         -0.3750    5.3160   -1.4650 n         1 MOL     -0.061837
     39 C13         1.0460    5.5570   -1.6750 c3        1 MOL     -0.031673
     40 C14         1.8010    5.1430   -0.4100 c         1 MOL      0.393021
     41 O6          1.1750    4.8230    0.6160 o         1 MOL     -0.512119
     42 C15         1.4570    4.8590   -2.9270 c3        1 MOL     -0.302569
     43 C16         2.8980    5.1850   -3.4310 c         1 MOL      0.705867
     44 O7          3.5780    6.2100   -3.0830 o         1 MOL     -0.706844
     45 O8          3.3860    4.3470   -4.2340 o         1 MOL     -0.706844
     46 H19        -0.5870    4.6480   -0.7420 hn        1 MOL      0.199228
     47 H20         1.2010    6.6230   -1.8380 h1        1 MOL      0.056641
     48 H21         0.7250    5.0690   -3.7090 hc        1 MOL      0.076588
     49 H22         1.2940    3.7830   -2.9050 hc        1 MOL      0.076588
     50 N4          3.1210    5.2690   -0.3920 n         1 MOL     -0.277200
     51 C17         3.9880    4.8710    0.7360 c3        1 MOL     -0.217549
     52 C18         4.3980    3.4180    0.6960 c         1 MOL      0.798926
     53 O9          3.9310    2.7400   -0.2250 o         1 MOL     -0.571034
     54 H23         3.5680    5.6830   -1.2040 hn        1 MOL      0.264825
     55 H24         3.5290    5.0970    1.6990 h1        1 MOL      0.094256
     56 H25         4.9160    5.4160    0.5940 h1        1 MOL      0.094256
     57 N5          5.0950    2.9510    1.6850 n         1 MOL     -0.770011
     58 C19         5.6220    1.6050    1.7660 c3        1 MOL      0.439594
     59 C20         7.0370    1.5950    2.3140 c         1 MOL      0.518053
     60 O10         7.4920    2.5920    2.8410 o         1 MOL     -0.538583
     61 C21         4.6340    0.7350    2.6620 c3        1 MOL     -0.352774
     62 C22         4.1130    1.5220    3.8950 c         1 MOL      0.811497
     63 O11         4.5570    1.3410    5.0580 o         1 MOL     -0.739363
     64 O12         3.1600    2.2740    3.7240 o         1 MOL     -0.739363
     65 H26         5.3940    3.6320    2.3710 hn        1 MOL      0.354430
     66 H27         5.5950    1.1330    0.7820 h1        1 MOL     -0.017979
     67 H28         5.0250   -0.2390    2.9400 hc        1 MOL      0.064518
     68 H29         3.7100    0.6210    2.0910 hc        1 MOL      0.064518
     69 N6          7.8630    0.5140    2.1960 n         1 MOL     -0.587437
     70 C23         7.5720   -0.7350    1.4370 c3        1 MOL      0.059277
     71 C24         7.7240   -0.6570   -0.0510 c         1 MOL      0.716958
     72 O13         8.0760    0.3630   -0.5710 o         1 MOL     -0.576915
     73 H30         8.8150    0.5720    2.5440 hn        1 MOL      0.331212
     74 H31         6.5400   -1.0240    1.6380 h1        1 MOL      0.008359
     75 H32         8.2610   -1.5620    1.6030 h1        1 MOL      0.008359
     76 N7          7.4890   -1.6950   -0.8040 n         1 MOL     -0.562333
     77 C25         6.9360   -3.0560   -0.4570 c3        1 MOL      0.033578
     78 C26         5.5470   -3.0240    0.2680 c         1 MOL      0.383004
     79 O14         5.4660   -3.3050    1.4920 o         1 MOL     -0.502802
     80 C27         8.0070   -3.8720    0.2590 c3        1 MOL      0.185288
     81 C28         9.2570   -4.0770   -0.5830 c3        1 MOL     -0.481344
     82 C29        10.3010   -2.9580   -0.4890 c         1 MOL      0.698624
     83 N8         10.5250   -2.3570    0.6420 n         1 MOL     -0.790386
     84 O15        11.0290   -2.6530   -1.4510 o         1 MOL     -0.577326
     85 H33         7.7670   -1.5900   -1.7650 hn        1 MOL      0.314003
     86 H34         6.8150   -3.5770   -1.4010 h1        1 MOL      0.095308
     87 H35         7.5130   -4.8110    0.5270 hc        1 MOL     -0.023848
     88 H36         8.2570   -3.4300    1.2190 hc        1 MOL     -0.023848
     89 H37         8.9830   -4.2290   -1.6250 hc        1 MOL      0.132626
     90 H38         9.7640   -4.9730   -0.2090 hc        1 MOL      0.132626
     91 H39        10.1090   -2.7890    1.4570 hn        1 MOL      0.378862
     92 H40        11.1810   -1.5920    0.7280 hn        1 MOL      0.378862
     93 N9          4.4590   -2.6140   -0.4450 n         1 MOL     -0.339522
     94 C30         3.1930   -2.3250    0.1850 c3        1 MOL      0.040253
     95 C31         2.5380   -1.0730   -0.4170 c         1 MOL      0.523958
     96 O16         2.7670   -0.6690   -1.5650 o         1 MOL     -0.514222
     97 C32         2.2290   -3.5080   -0.0790 c3        1 MOL      0.093818
     98 C33         2.6830   -4.8760    0.3940 c3        1 MOL     -0.160534
     99 C34         1.8460   -3.6860   -1.5750 c3        1 MOL     -0.160534
    100 H41         4.6710   -2.4180   -1.4160 hn        1 MOL      0.241294
    101 H42         3.2210   -2.1180    1.2560 h1        1 MOL      0.111184
    102 H43         1.2640   -3.2390    0.3420 hc        1 MOL      0.019595
    103 H44         1.8220   -5.5310    0.2340 hc        1 MOL      0.043546
    104 H45         3.5530   -5.2890   -0.1090 hc        1 MOL      0.043546
    105 H46         2.9590   -4.8680    1.4460 hc        1 MOL      0.043546
    106 H47         2.7240   -3.8160   -2.2100 hc        1 MOL      0.043546
    107 H48         1.1400   -4.5110   -1.6690 hc        1 MOL      0.043546
    108 H49         1.2660   -2.8890   -2.0310 hc        1 MOL      0.043546
    109 N10         1.6100   -0.4580    0.3700 n         1 MOL     -0.611165
    110 C35         0.8590    0.7850    0.0040 c3        1 MOL      0.040658
    111 C36        -0.4570    0.6930   -0.8280 c         1 MOL      0.117167
    112 O17        -1.4040    1.3860   -0.5380 o         1 MOL     -0.245410
    113 C37         0.7040    1.5750    1.3600 c3        1 MOL     -0.069372
    114 C38         0.1930    0.7120    2.5110 c         1 MOL      0.574512
    115 N11         0.7640    0.7180    3.7180 n         1 MOL     -0.865883
    116 O18        -0.6330   -0.1610    2.3150 o         1 MOL     -0.514218
    117 H50         1.5260   -0.7400    1.3290 hn        1 MOL      0.337002
    118 H51         1.5440    1.4290   -0.5480 h1        1 MOL      0.195350
    119 H52         0.1600    2.5150    1.2830 hc        1 MOL      0.098437
    120 H53         1.6730    1.9650    1.6790 hc        1 MOL      0.098437
    121 H54         1.4900    1.3890    3.9460 hn        1 MOL      0.396594
    122 H55         0.5750   -0.0070    4.3910 hn        1 MOL      0.396594
    123 N12        -0.4020   -0.1160   -1.8230 n         1 MOL     -0.151808
    124 C39        -1.6880   -0.6570   -2.3770 c3        1 MOL     -0.010035
    125 C40        -2.0810   -1.8900   -1.4840 c         1 MOL      0.232267
    126 O19        -1.3650   -2.3560   -0.6380 o         1 MOL     -0.414163
    127 C41        -1.4340   -0.9620   -3.8750 c3        1 MOL      0.307027
    128 C42        -0.3060   -1.9650   -4.2840 ca        1 MOL      0.048376
    129 C43        -0.5500   -3.3250   -4.6530 ca        1 MOL     -0.225637
    130 C44         1.0670   -1.5120   -4.2940 ca        1 MOL     -0.225637
    131 C45         0.4800   -4.2180   -5.0640 ca        1 MOL     -0.238039
    132 C46         2.0760   -2.3920   -4.7500 ca        1 MOL     -0.238039
    133 C47         1.8100   -3.7150   -5.1670 ca        1 MOL      0.315809
    134 O20         2.7440   -4.4560   -5.7030 oh        1 MOL     -0.489890
    135 H56         0.4630   -0.5640   -2.1040 hn        1 MOL      0.199383
    136 H57        -2.4490    0.1170   -2.4090 h1        1 MOL      0.025978
    137 H58        -1.3050    0.0390   -4.2800 hc        1 MOL     -0.107136
    138 H59        -2.3480   -1.3700   -4.3030 hc        1 MOL     -0.107136
    139 H60        -1.5130   -3.8110   -4.5840 ha        1 MOL      0.185248
    140 H61         1.3370   -0.4820   -4.1420 ha        1 MOL      0.185248
    141 H62         0.3630   -5.2630   -5.3250 ha        1 MOL      0.145398
    142 H63         3.0300   -1.9710   -4.9990 ha        1 MOL      0.145398
    143 H64         3.5460   -3.9310   -5.7500 ho        1 MOL      0.365733
    144 N13        -3.3100   -2.3470   -1.7190 n         1 MOL     -0.234489
    145 C48        -3.9060   -3.5260   -1.1650 c3        1 MOL     -0.528457
    146 C49        -5.4580   -3.4640   -1.0400 c         1 MOL      0.746000
    147 O21        -6.2060   -3.9560   -1.8780 o         1 MOL     -0.507776
    148 C50        -3.3060   -4.7260   -2.0150 c3        1 MOL      0.053934
    149 C51        -3.8270   -6.1400   -1.8310 c3        1 MOL     -0.259679
    150 C52        -3.4950   -6.7080   -0.4120 c         1 MOL      0.789171
    151 O22        -3.9330   -6.1450    0.5920 o         1 MOL     -0.751514
    152 O23        -2.7950   -7.7440   -0.3450 o         1 MOL     -0.751514
    153 H65        -3.7570   -1.8700   -2.4950 hn        1 MOL      0.346005
    154 H66        -3.5280   -3.7150   -0.1540 h1        1 MOL      0.262179
    155 H67        -2.2140   -4.7250   -2.1040 hc        1 MOL      0.040122
    156 H68        -3.4010   -4.5090   -3.0720 hc        1 MOL      0.040122
    157 H69        -3.3740   -6.7980   -2.5700 hc        1 MOL      0.012629
    158 H70        -4.9130   -6.1160   -1.7980 hc        1 MOL      0.012629
    159 N14        -5.8650   -2.5830   -0.1130 n         1 MOL     -0.370744
    160 C53        -7.3030   -2.2380    0.1680 c3        1 MOL     -0.007072
    161 C54        -7.8670   -1.5920   -1.0930 c         1 MOL      0.247292
    162 O24        -8.7460   -2.1310   -1.7900 o         1 MOL     -0.498763
    163 C55        -7.4060   -1.2710    1.3240 c3        1 MOL      0.278893
    164 C56        -7.2350   -1.8160    2.6960 c3        1 MOL     -0.234912
    165 C57        -5.7480   -1.8100    3.1490 c         1 MOL      0.684590
    166 O25        -5.2740   -0.9550    3.9810 o         1 MOL     -0.727751
    167 O26        -4.9000   -2.6240    2.7400 o         1 MOL     -0.727751
    168 H71        -5.1950   -2.3260    0.6020 hn        1 MOL      0.264474
    169 H72        -7.9040   -3.1250    0.3940 h1        1 MOL      0.073582
    170 H73        -8.4120   -0.8540    1.2540 hc        1 MOL     -0.044546
    171 H74        -6.6550   -0.4940    1.1930 hc        1 MOL     -0.044546
    172 H75        -7.6660   -2.8000    2.8200 hc        1 MOL      0.035745
    173 H76        -7.8230   -1.1900    3.3800 hc        1 MOL      0.035745
    174 N15        -7.0850   -0.6390   -1.6490 n         1 MOL     -0.089201
    175 C58        -7.0880   -0.2900   -3.0520 c3        1 MOL     -0.117706
    176 H77        -6.9210    0.7820   -3.1580 h1        1 MOL      0.060828
    177 H78        -6.2940   -0.8340   -3.5630 h1        1 MOL      0.060828
    178 H79        -8.0510   -0.5540   -3.4900 h1        1 MOL      0.060828
    179 H80        -6.3160   -0.3600   -1.0620 hn        1 MOL      0.051793
    180 Ca1        -2.7480   -1.2570    3.5510 Ca        1 MOL      1.763206
    181 O27        -0.4970   -1.6520    5.0920 oh        1 MOL     -0.860793
    182 H81        -0.8590   -1.7120    5.9830 ho        1 MOL      0.418652
    183 H82         0.3390   -2.1110    5.1500 ho        1 MOL      0.418652
    184 O28        -3.1740   -0.4090    1.0420 oh        1 MOL     -0.860793
    185 H83        -3.8600    0.0140    0.5210 ho        1 MOL      0.418652
    186 H84        -2.4250    0.1750    0.9720 ho        1 MOL      0.418652
    187 O29        -3.1930   -0.6090    6.2550 oh        1 MOL     -0.860793
    188 H85        -3.8320    0.0440    6.5450 ho        1 MOL      0.418652
    189 H86        -2.7930   -0.9330    7.0600 ho        1 MOL      0.418652
    190 O30        -1.6150   -2.8290    1.7910 oh        1 MOL     -0.860793
    191 H87        -1.6820   -3.7730    1.6210 ho        1 MOL      0.418652
    192 H88        -1.5660   -2.4300    0.9300 ho        1 MOL      0.418652
    193 O31        -2.8490   -3.6810    4.4700 oh        1 MOL     -0.860793
    194 H89        -3.6860   -4.1430    4.5760 ho        1 MOL      0.418652
    195 H90        -2.1990   -4.3000    4.7970 ho        1 MOL      0.418652
@<TRIPOS>BOND
     1    1    2 1   
     2    1    4 1   
     3    1    5 1   
     4    1    6 1   
     5    2    3 2   
     6    2    7 1   
     7    7    8 1   
     8    7   15 1   
     9    8    9 1   
    10    8   11 1   
    11    8   16 1   
    12    9   10 2   
    13    9   19 1   
    14   11   12 1   
    15   11   17 1   
    16   11   18 1   
    17   12   13 1   
    18   12   14 1   
    19   19   20 1   
    20   19   27 1   
    21   20   21 1   
    22   20   23 1   
    23   20   28 1   
    24   21   22 2   
    25   21   38 1   
    26   23   24 1   
    27   23   25 1   
    28   23   29 1   
    29   24   26 1   
    30   24   30 1   
    31   24   31 1   
    32   25   32 1   
    33   25   33 1   
    34   25   34 1   
    35   26   35 1   
    36   26   36 1   
    37   26   37 1   
    38   38   39 1   
    39   38   46 1   
    40   39   40 1   
    41   39   42 1   
    42   39   47 1   
    43   40   41 2   
    44   40   50 1   
    45   42   43 1   
    46   42   48 1   
    47   42   49 1   
    48   43   44 1   
    49   43   45 1   
    50   50   51 1   
    51   50   54 1   
    52   51   52 1   
    53   51   55 1   
    54   51   56 1   
    55   52   53 2   
    56   52   57 1   
    57   57   58 1   
    58   57   65 1   
    59   58   59 1   
    60   58   61 1   
    61   58   66 1   
    62   59   60 2   
    63   59   69 1   
    64   61   62 1   
    65   61   67 1   
    66   61   68 1   
    67   62   63 1   
    68   62   64 1   
    69   69   70 1   
    70   69   73 1   
    71   70   71 1   
    72   70   74 1   
    73   70   75 1   
    74   71   72 2   
    75   71   76 1   
    76   76   77 1   
    77   76   85 1   
    78   77   78 1   
    79   77   80 1   
    80   77   86 1   
    81   78   79 2   
    82   78   93 1   
    83   80   81 1   
    84   80   87 1   
    85   80   88 1   
    86   81   82 1   
    87   81   89 1   
    88   81   90 1   
    89   82   83 1   
    90   82   84 2   
    91   83   91 1   
    92   83   92 1   
    93   93   94 1   
    94   93  100 1   
    95   94   95 1   
    96   94   97 1   
    97   94  101 1   
    98   95   96 2   
    99   95  109 1   
   100   97   98 1   
   101   97   99 1   
   102   97  102 1   
   103   98  103 1   
   104   98  104 1   
   105   98  105 1   
   106   99  106 1   
   107   99  107 1   
   108   99  108 1   
   109  109  110 1   
   110  109  117 1   
   111  110  111 1   
   112  110  113 1   
   113  110  118 1   
   114  111  112 2   
   115  111  123 1   
   116  113  114 1   
   117  113  119 1   
   118  113  120 1   
   119  114  115 1   
   120  114  116 2   
   121  115  121 1   
   122  115  122 1   
   123  123  124 1   
   124  123  135 1   
   125  124  125 1   
   126  124  127 1   
   127  124  136 1   
   128  125  126 2   
   129  125  144 1   
   130  127  128 1   
   131  127  137 1   
   132  127  138 1   
   133  128  129 ar  
   134  128  130 ar  
   135  129  131 ar  
   136  129  139 1   
   137  130  132 ar  
   138  130  140 1   
   139  131  133 ar  
   140  131  141 1   
   141  132  133 ar  
   142  132  142 1   
   143  133  134 1   
   144  134  143 1   
   145  144  145 1   
   146  144  153 1   
   147  145  146 1   
   148  145  148 1   
   149  145  154 1   
   150  146  147 2   
   151  146  159 1   
   152  148  149 1   
   153  148  155 1   
   154  148  156 1   
   155  149  150 1   
   156  149  157 1   
   157  149  158 1   
   158  150  151 1   
   159  150  152 1   
   160  159  160 1   
   161  159  168 1   
   162  160  161 1   
   163  160  163 1   
   164  160  169 1   
   165  161  162 2   
   166  161  174 1   
   167  163  164 1   
   168  163  170 1   
   169  163  171 1   
   170  164  165 1   
   171  164  172 1   
   172  164  173 1   
   173  165  166 1   
   174  165  167 1   
   175  174  175 1   
   176  174  179 1   
   177  175  176 1   
   178  175  177 1   
   179  175  178 1   
   180  181  182 1   
   181  181  183 1   
   182  184  185 1   
   183  184  186 1   
   184  187  188 1   
   185  187  189 1   
   186  190  191 1   
   187  190  192 1   
   188  193  194 1   
   189  193  195 1   
@<TRIPOS>SUBSTRUCTURE
     1 MOL         1 TEMP              0 ****  ****    0 ROOT
