@<TRIPOS>MOLECULE
MOL
  178   175     1     0     0
SMALL
resp


@<TRIPOS>ATOM
      1 C1         -1.1430    6.0220    2.4870 c3        1 MOL     -0.429261
      2 C2         -2.4850    6.0920    1.6750 c         1 MOL      0.649536
      3 O1         -2.4930    6.6780    0.5650 o         1 MOL     -0.569407
      4 H1         -0.3850    5.5160    1.8900 hc        1 MOL      0.102936
      5 H2         -0.8070    7.0320    2.7220 hc        1 MOL      0.102936
      6 H3         -1.3060    5.4680    3.4120 hc        1 MOL      0.102936
      7 N1         -3.5990    5.7430    2.2700 n         1 MOL     -0.427345
      8 C3         -4.8680    5.6520    1.4920 c3        1 MOL     -0.083508
      9 C4         -4.8730    4.5970    0.4010 c         1 MOL      0.757598
     10 O2         -4.4190    3.4570    0.5540 o         1 MOL     -0.626994
     11 C5         -6.0150    5.4350    2.4860 c3        1 MOL     -0.173814
     12 C6         -7.4180    5.5550    1.8430 c         1 MOL      0.754290
     13 O3         -8.1960    4.5760    1.8050 o         1 MOL     -0.740237
     14 O4         -7.8400    6.7190    1.6190 o         1 MOL     -0.740237
     15 H4         -3.5110    5.3520    3.1940 hn        1 MOL      0.282944
     16 H5         -5.0180    6.6370    1.0350 h1        1 MOL      0.075690
     17 H6         -6.0080    6.0920    3.3590 hc        1 MOL      0.026460
     18 H7         -5.8200    4.4580    2.9210 hc        1 MOL      0.026460
     19 N2         -5.5260    4.8850   -0.6790 n         1 MOL     -0.702721
     20 C7         -5.5980    4.0690   -1.8550 c3        1 MOL      0.603448
     21 C8         -4.2020    3.6970   -2.3970 c         1 MOL      0.190191
     22 O5         -3.1620    4.4550   -2.2090 o         1 MOL     -0.508518
     23 C9         -6.5470    4.7150   -2.8710 c3        1 MOL     -0.430664
     24 H8         -5.9670    5.7920   -0.7880 hn        1 MOL      0.316787
     25 H9         -6.0530    3.1330   -1.5220 h1        1 MOL      0.029747
     26 H10        -6.7860    3.9570   -3.6290 hc        1 MOL      0.105305
     27 H11        -7.4650    5.0680   -2.3840 hc        1 MOL      0.105305
     28 H12        -6.0890    5.5800   -3.3290 hc        1 MOL      0.105305
     29 N3         -3.9380    2.5810   -3.0680 n         1 MOL     -0.218726
     30 C10        -4.8000    1.4820   -3.4360 c3        1 MOL     -0.208904
     31 C11        -5.3290    0.6260   -2.2660 c         1 MOL      0.435745
     32 O6         -4.9510    0.9030   -1.0930 o         1 MOL     -0.364406
     33 C12        -4.0360    0.6300   -4.4750 c3        1 MOL     -0.172859
     34 C13        -2.7030    0.0510   -3.9850 c         1 MOL      0.605597
     35 O7         -2.4150    0.0570   -2.7880 o         1 MOL     -0.664234
     36 O8         -2.0010   -0.5220   -4.8660 o         1 MOL     -0.664234
     37 H13        -2.9390    2.4530   -3.1590 hn        1 MOL      0.270338
     38 H14        -5.7150    1.9140   -3.8340 h1        1 MOL      0.082865
     39 H15        -3.7920    1.2830   -5.3210 hc        1 MOL      0.078145
     40 H16        -4.6860   -0.1900   -4.8010 hc        1 MOL      0.078145
     41 N4         -6.1390   -0.3590   -2.5150 n         1 MOL     -0.415571
     42 C14        -6.6440   -1.3210   -1.4800 c3        1 MOL     -0.044386
     43 C15        -7.7960   -0.9690   -0.4800 c         1 MOL      0.467463
     44 O9         -8.2840    0.1820   -0.6190 o         1 MOL     -0.476792
     45 H17        -6.4260   -0.5220   -3.4660 hn        1 MOL      0.317028
     46 H18        -5.8410   -1.5850   -0.7860 h1        1 MOL      0.064175
     47 H19        -7.0120   -2.1700   -2.0670 h1        1 MOL      0.064175
     48 N5         -8.1650   -1.8190    0.4710 n         1 MOL     -0.476476
     49 C16        -7.4380   -3.0180    0.8450 c3        1 MOL      0.196383
     50 C17        -6.1400   -2.7520    1.6880 c         1 MOL      0.509705
     51 O10        -5.9160   -1.6460    2.2070 o         1 MOL     -0.462148
     52 C18        -8.4980   -3.9190    1.5290 c3        1 MOL     -0.137675
     53 C19        -7.9780   -5.3460    1.6950 c         1 MOL      0.680020
     54 N6         -8.5650   -6.0770    2.6440 n         1 MOL     -0.833378
     55 O11        -7.1910   -5.8440    0.9550 o         1 MOL     -0.523760
     56 H20        -9.0280   -1.5990    0.9450 hn        1 MOL      0.310990
     57 H21        -7.1970   -3.5430   -0.0720 h1        1 MOL     -0.024746
     58 H22        -9.4650   -3.9260    1.0290 hc        1 MOL      0.042719
     59 H23        -8.6530   -3.5020    2.5220 hc        1 MOL      0.042719
     60 H24        -9.3320   -5.6780    3.1590 hn        1 MOL      0.380255
     61 H25        -8.1830   -6.9990    2.7740 hn        1 MOL      0.380255
     62 N7         -5.2520   -3.7730    1.8870 n         1 MOL     -0.487274
     63 C20        -4.0690   -3.7190    2.7370 c3        1 MOL     -0.046408
     64 C21        -3.0030   -4.6490    2.1790 c         1 MOL      0.513465
     65 O12        -3.1000   -5.8250    2.4280 o         1 MOL     -0.508202
     66 H26        -5.5980   -4.6670    1.5780 hn        1 MOL      0.269182
     67 H27        -4.3640   -4.0510    3.7340 h1        1 MOL      0.085261
     68 H28        -3.7350   -2.6850    2.8880 h1        1 MOL      0.085261
     69 N8         -2.0630   -4.0800    1.3270 n         1 MOL     -0.601938
     70 C22        -0.8810   -4.7290    0.6750 c3        1 MOL      0.102522
     71 C23         0.2330   -3.6990    0.6300 c         1 MOL      0.580241
     72 O13         0.0170   -2.5330    0.3730 o         1 MOL     -0.599252
     73 C24        -1.2980   -5.2110   -0.7350 c3        1 MOL      0.239982
     74 C25        -0.0920   -5.5370   -1.6040 c3        1 MOL     -0.192456
     75 O14        -2.0270   -6.4220   -0.6920 oh        1 MOL     -0.612367
     76 H29        -2.2110   -3.1120    1.1030 hn        1 MOL      0.329886
     77 H30        -0.5270   -5.5970    1.2520 h1        1 MOL      0.083091
     78 H31        -1.8070   -4.4560   -1.3180 h1        1 MOL      0.004767
     79 H32        -2.9640   -6.2280   -0.5880 ho        1 MOL      0.396556
     80 H33         0.4180   -4.6140   -1.8720 hc        1 MOL      0.074196
     81 H34         0.5890   -6.2490   -1.1420 hc        1 MOL      0.074196
     82 H35        -0.4670   -5.8730   -2.5720 hc        1 MOL      0.074196
     83 N9          1.4950   -4.2270    0.7490 n         1 MOL     -0.488837
     84 C26         2.7170   -3.3690    0.8720 c3        1 MOL     -0.117026
     85 C27         3.3920   -3.5480   -0.4800 c         1 MOL      0.386705
     86 O15         3.7730   -4.6440   -0.9330 o         1 MOL     -0.541833
     87 C28         3.6160   -3.8150    2.0270 c3        1 MOL      0.199938
     88 C29         5.0300   -3.1790    1.9620 c3        1 MOL      0.012265
     89 C30         2.9470   -3.5230    3.3490 c3        1 MOL     -0.377934
     90 C31         5.9360   -3.5450    3.1470 c3        1 MOL     -0.121576
     91 H36         1.5890   -5.2260    0.7190 hn        1 MOL      0.303022
     92 H37         2.4190   -2.3260    0.9250 h1        1 MOL      0.355912
     93 H38         3.7340   -4.9020    1.9690 hc        1 MOL      0.002980
     94 H39         4.9630   -2.1080    1.7470 hc        1 MOL     -0.002407
     95 H40         5.5620   -3.5680    1.0970 hc        1 MOL     -0.002407
     96 H41         3.4550   -4.1220    4.1130 hc        1 MOL      0.079899
     97 H42         2.9220   -2.4720    3.6540 hc        1 MOL      0.079899
     98 H43         1.9180   -3.8320    3.1500 hc        1 MOL      0.079899
     99 H44         6.1520   -4.6080    3.2580 hc        1 MOL      0.026687
    100 H45         6.9270   -3.1020    3.0740 hc        1 MOL      0.026687
    101 H46         5.5240   -3.2320    4.1030 hc        1 MOL      0.026687
    102 N10         3.5250   -2.4020   -1.1280 n         1 MOL     -0.212197
    103 C32         4.1430   -2.0830   -2.4180 c3        1 MOL      0.159571
    104 C33         5.4590   -1.2700   -2.3340 c         1 MOL      0.401300
    105 O16         6.3520   -1.3210   -3.1760 o         1 MOL     -0.542850
    106 C34         3.1990   -1.3460   -3.3050 c3        1 MOL      0.012495
    107 C35         1.8500   -2.0820   -3.3460 c         1 MOL      0.679732
    108 O17         0.8840   -1.7170   -2.6800 o         1 MOL     -0.697416
    109 O18         1.7720   -3.0480   -4.1680 o         1 MOL     -0.697416
    110 H47         3.1670   -1.5920   -0.6330 hn        1 MOL      0.141423
    111 H48         4.4850   -2.9620   -2.9690 h1        1 MOL      0.041301
    112 H49         3.6340   -1.3480   -4.3000 hc        1 MOL     -0.029541
    113 H50         3.0830   -0.3550   -2.8660 hc        1 MOL     -0.029541
    114 N11         5.6340   -0.4790   -1.2720 n         1 MOL     -0.442624
    115 C36         6.8350    0.4240   -1.1190 c3        1 MOL      0.469874
    116 C37         6.5160    1.6690   -0.2510 c         1 MOL      0.224112
    117 O19         7.1700    1.8580    0.8180 o         1 MOL     -0.518150
    118 C38         8.0150   -0.4270   -0.5520 c3        1 MOL     -0.475494
    119 C39         9.3210    0.1250   -1.0840 ca        1 MOL      0.243035
    120 C40        10.1990    0.7330   -0.1680 ca        1 MOL     -0.207448
    121 C41         9.7890   -0.1760   -2.4000 ca        1 MOL     -0.207448
    122 C42        11.4680    1.0900   -0.5420 ca        1 MOL     -0.092324
    123 C43        11.0640    0.2820   -2.7060 ca        1 MOL     -0.092324
    124 C44        11.9000    0.8940   -1.7990 ca        1 MOL     -0.152463
    125 H51         4.9140   -0.5140   -0.5690 hn        1 MOL      0.227144
    126 H52         7.1530    0.7950   -2.0900 h1        1 MOL     -0.012634
    127 H53         8.0300   -1.4440   -0.9610 hc        1 MOL      0.143953
    128 H54         8.0690   -0.4490    0.5380 hc        1 MOL      0.143953
    129 H55         9.8670    1.0410    0.8200 ha        1 MOL      0.143799
    130 H56         9.1120   -0.5110   -3.1640 ha        1 MOL      0.143799
    131 H57        12.1370    1.5060    0.1880 ha        1 MOL      0.085661
    132 H58        11.4000    0.2230   -3.7310 ha        1 MOL      0.085661
    133 H59        12.8410    1.3210   -2.1130 ha        1 MOL      0.097569
    134 N12         5.5180    2.4880   -0.6360 n         1 MOL     -0.089876
    135 C45         5.0810    3.6620    0.1280 c3        1 MOL      0.055683
    136 C46         4.6760    3.3720    1.5950 c         1 MOL      0.144835
    137 O20         4.7890    4.3170    2.3840 o         1 MOL     -0.482704
    138 C47         3.8270    4.2060   -0.6040 c3        1 MOL      0.009723
    139 C48         4.0320    3.7210   -2.0660 c3        1 MOL     -0.181307
    140 C49         4.6410    2.3420   -1.7740 c3        1 MOL     -0.119021
    141 H60         5.7570    4.5060    0.1370 h1        1 MOL      0.099627
    142 H61         2.8470    3.9250   -0.2320 hc        1 MOL      0.055465
    143 H62         3.8570    5.2980   -0.6130 hc        1 MOL      0.055465
    144 H63         3.0930    3.5370   -2.5970 hc        1 MOL      0.058430
    145 H64         4.7130    4.4050   -2.5590 hc        1 MOL      0.058430
    146 H65         3.7720    1.7880   -1.4040 h1        1 MOL      0.102966
    147 H66         5.0980    1.8620   -2.6490 h1        1 MOL      0.102966
    148 N13         4.3790    2.1310    1.9870 n         1 MOL      0.027495
    149 C50         4.0000    1.8630    3.4030 c3        1 MOL     -0.227119
    150 C51         5.2060    1.8420    4.3250 c         1 MOL      0.507464
    151 O21         5.1520    2.3040    5.4760 o         1 MOL     -0.542798
    152 C52         3.2850    0.4940    3.3780 c3        1 MOL      0.175122
    153 C53         2.0830    0.3250    2.4820 c3        1 MOL     -0.279416
    154 C54         2.2860    0.1810    0.9990 c         1 MOL      0.555919
    155 O22         1.2610    0.0120    0.2790 o         1 MOL     -0.702563
    156 O23         3.4030    0.0400    0.5300 o         1 MOL     -0.702563
    157 H67         4.3570    1.3330    1.3620 hn        1 MOL      0.282994
    158 H68         3.3070    2.6530    3.6810 h1        1 MOL      0.140051
    159 H69         2.8640    0.4340    4.3810 hc        1 MOL     -0.032996
    160 H70         3.9640   -0.3330    3.2000 hc        1 MOL     -0.032996
    161 H71         1.4590    1.2020    2.6300 hc        1 MOL      0.088616
    162 H72         1.4910   -0.5320    2.8230 hc        1 MOL      0.088616
    163 N14         6.3830    1.3620    3.8860 n         1 MOL     -0.172584
    164 C55         7.5120    1.3720    4.8080 c3        1 MOL     -0.431074
    165 H73         8.4100    1.0400    4.2860 h1        1 MOL      0.144260
    166 H74         7.6650    2.3830    5.1860 h1        1 MOL      0.144260
    167 H75         7.3080    0.7000    5.6410 h1        1 MOL      0.144260
    168 H76         6.5640    0.7980    3.0690 hn        1 MOL      0.237489
    169 Ca1        -0.6160   -0.3440   -1.1760 Ca        1 MOL      1.724227
    170 O24        -2.8120   -1.7060   -0.3860 oh        1 MOL     -0.898050
    171 H77        -3.5740   -1.1240   -0.2840 ho        1 MOL      0.439205
    172 H78        -3.1910   -2.5270   -0.6940 ho        1 MOL      0.439205
    173 O25        -2.3940    1.3220   -0.0530 oh        1 MOL     -0.898050
    174 H79        -3.1630    1.1540   -0.5910 ho        1 MOL      0.439205
    175 H80        -2.5420    2.1880    0.3250 ho        1 MOL      0.439205
    176 O26         0.5530    1.4050   -2.9430 oh        1 MOL     -0.898050
    177 H81         1.0880    0.9580   -3.6040 ho        1 MOL      0.439205
    178 H82         0.6030    2.3280   -3.1710 ho        1 MOL      0.439205
@<TRIPOS>BOND
     1    1    2 1   
     2    1    4 1   
     3    1    5 1   
     4    1    6 1   
     5    2    3 2   
     6    2    7 1   
     7    7    8 1   
     8    7   15 1   
     9    8    9 1   
    10    8   11 1   
    11    8   16 1   
    12    9   10 2   
    13    9   19 1   
    14   11   12 1   
    15   11   17 1   
    16   11   18 1   
    17   12   13 1   
    18   12   14 1   
    19   19   20 1   
    20   19   24 1   
    21   20   21 1   
    22   20   23 1   
    23   20   25 1   
    24   21   22 2   
    25   21   29 1   
    26   23   26 1   
    27   23   27 1   
    28   23   28 1   
    29   29   30 1   
    30   29   37 1   
    31   30   31 1   
    32   30   33 1   
    33   30   38 1   
    34   31   32 2   
    35   31   41 1   
    36   33   34 1   
    37   33   39 1   
    38   33   40 1   
    39   34   35 1   
    40   34   36 1   
    41   41   42 1   
    42   41   45 1   
    43   42   43 1   
    44   42   46 1   
    45   42   47 1   
    46   43   44 2   
    47   43   48 1   
    48   48   49 1   
    49   48   56 1   
    50   49   50 1   
    51   49   52 1   
    52   49   57 1   
    53   50   51 2   
    54   50   62 1   
    55   52   53 1   
    56   52   58 1   
    57   52   59 1   
    58   53   54 1   
    59   53   55 2   
    60   54   60 1   
    61   54   61 1   
    62   62   63 1   
    63   62   66 1   
    64   63   64 1   
    65   63   67 1   
    66   63   68 1   
    67   64   65 2   
    68   64   69 1   
    69   69   70 1   
    70   69   76 1   
    71   70   71 1   
    72   70   73 1   
    73   70   77 1   
    74   71   72 2   
    75   71   83 1   
    76   73   74 1   
    77   73   75 1   
    78   73   78 1   
    79   74   80 1   
    80   74   81 1   
    81   74   82 1   
    82   75   79 1   
    83   83   84 1   
    84   83   91 1   
    85   84   85 1   
    86   84   87 1   
    87   84   92 1   
    88   85   86 2   
    89   85  102 1   
    90   87   88 1   
    91   87   89 1   
    92   87   93 1   
    93   88   90 1   
    94   88   94 1   
    95   88   95 1   
    96   89   96 1   
    97   89   97 1   
    98   89   98 1   
    99   90   99 1   
   100   90  100 1   
   101   90  101 1   
   102  102  103 1   
   103  102  110 1   
   104  103  104 1   
   105  103  106 1   
   106  103  111 1   
   107  104  105 2   
   108  104  114 1   
   109  106  107 1   
   110  106  112 1   
   111  106  113 1   
   112  107  108 1   
   113  107  109 1   
   114  114  115 1   
   115  114  125 1   
   116  115  116 1   
   117  115  118 1   
   118  115  126 1   
   119  116  117 2   
   120  116  134 1   
   121  118  119 1   
   122  118  127 1   
   123  118  128 1   
   124  119  120 ar  
   125  119  121 ar  
   126  120  122 ar  
   127  120  129 1   
   128  121  123 ar  
   129  121  130 1   
   130  122  124 ar  
   131  122  131 1   
   132  123  124 ar  
   133  123  132 1   
   134  124  133 1   
   135  134  135 1   
   136  134  140 1   
   137  135  136 1   
   138  135  138 1   
   139  135  141 1   
   140  136  137 2   
   141  136  148 1   
   142  138  139 1   
   143  138  142 1   
   144  138  143 1   
   145  139  140 1   
   146  139  144 1   
   147  139  145 1   
   148  140  146 1   
   149  140  147 1   
   150  148  149 1   
   151  148  157 1   
   152  149  150 1   
   153  149  152 1   
   154  149  158 1   
   155  150  151 2   
   156  150  163 1   
   157  152  153 1   
   158  152  159 1   
   159  152  160 1   
   160  153  154 1   
   161  153  161 1   
   162  153  162 1   
   163  154  155 1   
   164  154  156 1   
   165  163  164 1   
   166  163  168 1   
   167  164  165 1   
   168  164  166 1   
   169  164  167 1   
   170  170  171 1   
   171  170  172 1   
   172  173  174 1   
   173  173  175 1   
   174  176  177 1   
   175  176  178 1   
@<TRIPOS>SUBSTRUCTURE
     1 MOL         1 TEMP              0 ****  ****    0 ROOT
