@<TRIPOS>MOLECULE
MOL
  195   189     1     0     0
SMALL
resp


@<TRIPOS>ATOM
      1 C1         -3.6690    6.7810    2.2580 c3        1 MOL     -0.342188
      2 C2         -3.5310    5.2110    1.8660 c         1 MOL      0.602216
      3 O1         -3.2600    4.3940    2.7700 o         1 MOL     -0.569247
      4 H1         -4.0510    7.3360    1.4010 hc        1 MOL      0.092086
      5 H2         -4.3580    6.8880    3.0960 hc        1 MOL      0.092086
      6 H3         -2.6920    7.1740    2.5380 hc        1 MOL      0.092086
      7 N1         -3.7040    4.7870    0.6110 n         1 MOL     -0.411948
      8 C3         -3.8200    3.4050    0.1330 c3        1 MOL      0.116229
      9 C4         -2.4030    2.7250   -0.1660 c         1 MOL      0.424452
     10 O2         -2.3180    1.6700   -0.8170 o         1 MOL     -0.504706
     11 C5         -4.6800    3.3900   -1.0920 c3        1 MOL     -0.381293
     12 C6         -4.3980    4.4720   -2.1330 c         1 MOL      0.757935
     13 O3         -4.5460    5.7290   -1.9470 o         1 MOL     -0.728849
     14 O4         -3.8310    4.0850   -3.1770 o         1 MOL     -0.728849
     15 H4         -3.8940    5.5210   -0.0540 hn        1 MOL      0.246667
     16 H5         -4.1330    2.7500    0.9540 h1        1 MOL      0.093460
     17 H6         -5.7220    3.5470   -0.7930 hc        1 MOL      0.097985
     18 H7         -4.6010    2.4370   -1.6180 hc        1 MOL      0.097985
     19 N2         -1.3310    3.2620    0.4250 n         1 MOL     -0.274417
     20 C7          0.0770    2.9220    0.1030 c3        1 MOL      0.033998
     21 C8          0.8130    2.5110    1.3790 c         1 MOL      0.408271
     22 O5          0.5880    3.0240    2.4880 o         1 MOL     -0.495768
     23 C9          0.7140    4.2460   -0.4040 c3        1 MOL     -0.270759
     24 C10         0.3550    4.4020   -1.9110 c3        1 MOL     -0.070705
     25 C11         0.7890    5.7350   -2.5400 c3        1 MOL      0.057607
     26 C12         0.5320    5.6850   -4.0660 c3        1 MOL     -0.182024
     27 N3          1.3520    4.6320   -4.8240 n4        1 MOL     -0.309655
     28 H8         -1.4160    4.0460    1.0540 hn        1 MOL      0.226193
     29 H9          0.1250    2.2330   -0.7390 h1        1 MOL      0.110985
     30 H10         1.8020    4.2560   -0.3690 hc        1 MOL      0.115190
     31 H11         0.2890    5.1240    0.0880 hc        1 MOL      0.115190
     32 H12        -0.7240    4.4240   -1.7620 hc        1 MOL      0.065705
     33 H13         0.6220    3.5060   -2.4670 hc        1 MOL      0.065705
     34 H14         1.8570    5.8160   -2.3640 hc        1 MOL      0.043044
     35 H15         0.3840    6.6340   -2.0730 hc        1 MOL      0.043044
     36 H16         0.6370    6.6040   -4.6290 hx        1 MOL      0.151242
     37 H17        -0.5390    5.5150   -4.1580 hx        1 MOL      0.151242
     38 H18         1.0510    3.6680   -4.7300 hn        1 MOL      0.315715
     39 H19         1.4330    4.7740   -5.8210 hn        1 MOL      0.315715
     40 H20         2.3270    4.5900   -4.5430 hn        1 MOL      0.315715
     41 N4          1.7050    1.5000    1.3640 n         1 MOL     -0.288252
     42 C13         1.9150    0.5750    0.2380 c3        1 MOL      0.148818
     43 C14         2.2340    1.2340   -1.0670 c         1 MOL      0.146943
     44 O6          1.5880    0.9420   -2.0710 o         1 MOL     -0.486162
     45 C15         0.7770   -0.4890    0.1620 c3        1 MOL      0.993468
     46 C16         0.3730   -0.9620    1.5020 c         1 MOL      0.134200
     47 O7         -0.6480   -0.4610    2.0630 o         1 MOL     -0.645920
     48 O8          1.1090   -1.7720    2.0680 o         1 MOL     -0.645920
     49 H21         2.2000    1.2630    2.2090 hn        1 MOL      0.237020
     50 H22         2.8130   -0.0430    0.3640 h1        1 MOL     -0.046261
     51 H23         1.0360   -1.3160   -0.5030 hc        1 MOL     -0.230939
     52 H24        -0.0590   -0.0330   -0.3660 hc        1 MOL     -0.230939
     53 N5          3.2230    2.1300   -1.1480 n         1 MOL     -0.222652
     54 C17         4.2640    2.4490   -0.1870 c3        1 MOL      0.148026
     55 C18         5.2670    3.5010   -0.6430 c         1 MOL      0.444973
     56 O9          4.9770    4.2570   -1.5430 o         1 MOL     -0.548250
     57 H25         3.2500    2.6510   -2.0140 hn        1 MOL      0.216695
     58 H26         4.7790    1.5250    0.0810 h1        1 MOL     -0.028807
     59 H27         3.8480    2.8720    0.7180 h1        1 MOL     -0.028807
     60 N6          6.3350    3.8290    0.1150 n         1 MOL     -0.306898
     61 C19         6.9930    3.1620    1.2580 c3        1 MOL      0.006747
     62 C20         7.7650    1.9120    0.9150 c         1 MOL      0.622347
     63 O10         8.0530    1.7200   -0.2970 o         1 MOL     -0.480692
     64 C21         7.9000    4.2430    1.9420 c3        1 MOL     -0.220577
     65 C22         8.8160    5.1960    1.1390 c         1 MOL      0.762878
     66 O11         9.4880    6.0350    1.7420 o         1 MOL     -0.668570
     67 O12         8.9140    5.0050   -0.1070 o         1 MOL     -0.668570
     68 H28         6.8250    4.7010    0.0110 hn        1 MOL      0.251266
     69 H29         6.1940    2.8440    1.9340 h1        1 MOL     -0.002948
     70 H30         8.4990    3.7490    2.7060 hc        1 MOL      0.029858
     71 H31         7.1780    4.9360    2.3740 hc        1 MOL      0.029858
     72 N7          7.9690    0.8920    1.8590 n         1 MOL     -0.427159
     73 C23         8.5590   -0.3970    1.5280 c3        1 MOL     -0.181108
     74 C24         7.6410   -1.3680    0.8300 c         1 MOL      0.625767
     75 O13         8.0130   -2.0040   -0.1340 o         1 MOL     -0.537940
     76 H32         7.5190    1.0020    2.7520 hn        1 MOL      0.251558
     77 H33         8.8950   -0.8410    2.4660 h1        1 MOL      0.120475
     78 H34         9.4360   -0.2240    0.8890 h1        1 MOL      0.120475
     79 N8          6.4540   -1.6170    1.3310 n         1 MOL     -0.590632
     80 C25         5.4380   -2.4620    0.7160 c3        1 MOL      0.108823
     81 C26         4.9360   -2.0310   -0.6910 c         1 MOL      0.602146
     82 O14         4.8250   -0.7990   -1.0110 o         1 MOL     -0.439756
     83 C27         4.1840   -2.5480    1.6070 c3        1 MOL      0.292291
     84 C28         4.4290   -3.5540    2.7980 c3        1 MOL     -0.328533
     85 O15         3.1340   -3.0660    0.8860 oh        1 MOL     -0.435321
     86 H35         6.3630   -1.3190    2.2950 hn        1 MOL      0.310938
     87 H36         5.7800   -3.4890    0.6080 h1        1 MOL      0.067829
     88 H37         3.9460   -1.5730    2.0370 h1        1 MOL     -0.003459
     89 H38         2.3640   -2.9340    1.4470 ho        1 MOL      0.217991
     90 H39         4.4260   -4.5010    2.2650 hc        1 MOL      0.073094
     91 H40         5.3640   -3.3140    3.3090 hc        1 MOL      0.073094
     92 H41         3.6220   -3.4710    3.5360 hc        1 MOL      0.073094
     93 N9          4.5620   -2.9990   -1.4990 n         1 MOL     -0.597810
     94 C29         3.6420   -2.8160   -2.7020 c3        1 MOL     -0.368517
     95 C30         2.3190   -3.4450   -2.5760 c         1 MOL      0.497896
     96 O16         1.5700   -3.4320   -3.6040 o         1 MOL     -0.565088
     97 C31         4.3410   -3.1900   -3.9750 c3        1 MOL      0.392713
     98 C32         4.7270   -4.7140   -3.9540 c3        1 MOL      0.039564
     99 C33         5.5650   -2.2950   -4.1550 c3        1 MOL     -0.509304
    100 C34         4.9480   -5.2900   -5.2860 c3        1 MOL     -0.199202
    101 H42         4.6040   -3.8620   -0.9700 hn        1 MOL      0.289817
    102 H43         3.5530   -1.7400   -2.8450 h1        1 MOL      0.223614
    103 H44         3.6540   -3.1010   -4.8240 hc        1 MOL     -0.015966
    104 H45         3.9690   -5.3130   -3.4440 hc        1 MOL      0.015130
    105 H46         5.6260   -4.8050   -3.3500 hc        1 MOL      0.015130
    106 H47         6.2310   -2.3540   -3.2820 hc        1 MOL      0.136078
    107 H48         6.1160   -2.5710   -5.0460 hc        1 MOL      0.136078
    108 H49         5.1710   -1.2840   -4.2970 hc        1 MOL      0.136078
    109 H50         4.0400   -5.3990   -5.8940 hc        1 MOL      0.040456
    110 H51         5.5710   -4.6690   -5.9270 hc        1 MOL      0.040456
    111 H52         5.3060   -6.3250   -5.2830 hc        1 MOL      0.040456
    112 N10         1.9580   -4.0590   -1.4970 n         1 MOL     -0.037788
    113 C35         0.6120   -4.7600   -1.3580 c3        1 MOL     -0.506038
    114 C36        -0.5790   -3.7790   -0.9590 c         1 MOL      0.895511
    115 O17        -1.0370   -3.7860    0.1630 o         1 MOL     -0.663901
    116 C37         0.7500   -6.0030   -0.3740 c3        1 MOL      0.580862
    117 C38         1.1400   -5.7270    1.0710 c3        1 MOL     -0.559484
    118 O18         1.5550   -7.0340   -0.9050 oh        1 MOL     -0.659323
    119 H53         2.5880   -4.1210   -0.7000 hn        1 MOL      0.229043
    120 H54         0.3830   -5.1930   -2.3260 h1        1 MOL      0.153866
    121 H55        -0.1980   -6.5270   -0.3730 h1        1 MOL     -0.013927
    122 H56         0.9720   -7.7350   -1.2030 ho        1 MOL      0.402796
    123 H57         0.5880   -6.4360    1.7040 hc        1 MOL      0.146548
    124 H58         2.2070   -5.6260    1.2470 hc        1 MOL      0.146548
    125 H59         0.8320   -4.7270    1.3600 hc        1 MOL      0.146548
    126 N11        -1.1540   -3.1360   -1.9680 n         1 MOL     -0.692433
    127 C39        -2.1160   -2.0580   -1.8500 c3        1 MOL     -0.061980
    128 C40        -3.5910   -2.5330   -1.6170 c         1 MOL      0.817202
    129 O19        -3.9020   -3.6730   -2.0230 o         1 MOL     -0.552217
    130 C41        -1.9070   -0.9290   -2.8730 c3        1 MOL      0.444285
    131 C42        -2.4320   -1.3800   -4.2390 c3        1 MOL     -0.482457
    132 O20        -0.5590   -0.7210   -3.1300 oh        1 MOL     -0.574843
    133 H60        -0.6130   -2.9820   -2.7970 hn        1 MOL      0.382185
    134 H61        -1.8860   -1.5850   -0.8920 h1        1 MOL      0.086496
    135 H62        -2.4060   -0.0370   -2.5020 h1        1 MOL     -0.008540
    136 H63        -0.1960   -0.0270   -2.5910 ho        1 MOL      0.353137
    137 H64        -1.8850   -2.2890   -4.4670 hc        1 MOL      0.122718
    138 H65        -3.4920   -1.6080   -4.1380 hc        1 MOL      0.122718
    139 H66        -2.2270   -0.7210   -5.0860 hc        1 MOL      0.122718
    140 N12        -4.4770   -1.7640   -0.9350 n         1 MOL     -0.775936
    141 C43        -5.8810   -1.8210   -1.1830 c3        1 MOL     -0.052154
    142 C44        -6.5180   -1.3530    0.1750 c         1 MOL      0.682235
    143 O21        -7.6410   -1.6820    0.4130 o         1 MOL     -0.633234
    144 C45        -6.2220   -0.8800   -2.3640 c3        1 MOL     -0.021692
    145 C46        -7.7380   -0.9440   -2.7150 c3        1 MOL      0.213367
    146 C47        -8.0090   -0.5040   -4.1810 c3        1 MOL     -0.092290
    147 C48        -9.5140   -0.4260   -4.5270 c3        1 MOL      0.100019
    148 N13        -9.6930   -0.0620   -5.9720 n4        1 MOL     -0.289344
    149 H67        -4.0920   -0.9990   -0.4090 hn        1 MOL      0.330224
    150 H68        -6.1900   -2.8580   -1.3030 h1        1 MOL      0.141816
    151 H69        -5.5940   -1.2220   -3.1870 hc        1 MOL      0.014072
    152 H70        -6.0080    0.1820   -2.2450 hc        1 MOL      0.014072
    153 H71        -8.3280   -0.3620   -2.0060 hc        1 MOL     -0.028230
    154 H72        -7.9910   -2.0060   -2.6260 hc        1 MOL     -0.028230
    155 H73        -7.5020   -1.2390   -4.8130 hc        1 MOL      0.029783
    156 H74        -7.6060    0.5050   -4.2400 hc        1 MOL      0.029783
    157 H75        -9.9530    0.3320   -3.8820 hx        1 MOL      0.058018
    158 H76        -9.9030   -1.3810   -4.1770 hx        1 MOL      0.058018
    159 H77        -9.0730   -0.5620   -6.5960 hn        1 MOL      0.277322
    160 H78       -10.6320   -0.1590   -6.3360 hn        1 MOL      0.277322
    161 H79        -9.4100    0.9010   -6.0720 hn        1 MOL      0.277322
    162 N14        -5.8650   -0.6410    1.0990 n         1 MOL     -0.169303
    163 C49        -6.5280   -0.2860    2.3640 c3        1 MOL     -0.498537
    164 C50        -7.2400    1.0320    2.2720 c         1 MOL      0.403879
    165 O22        -6.6040    1.9560    1.7640 o         1 MOL     -0.479502
    166 C51        -5.4020   -0.1910    3.4790 c3        1 MOL      0.333504
    167 C52        -4.7850   -1.6290    3.9280 c3        1 MOL     -0.262146
    168 C53        -3.6620   -1.4550    4.9170 c         1 MOL      0.687027
    169 O23        -2.6440   -0.8630    4.5170 o         1 MOL     -0.695399
    170 O24        -3.8100   -1.8880    6.1220 o         1 MOL     -0.695399
    171 H80        -4.8810   -0.4580    0.9500 hn        1 MOL      0.200110
    172 H81        -7.2190   -1.0750    2.6740 h1        1 MOL      0.211469
    173 H82        -5.8210    0.3110    4.3520 hc        1 MOL      0.016522
    174 H83        -4.6480    0.5510    3.2110 hc        1 MOL      0.016522
    175 H84        -4.4680   -2.1860    3.0520 hc        1 MOL      0.021396
    176 H85        -5.5840   -2.2410    4.3400 hc        1 MOL      0.021396
    177 N15        -8.4970    1.1290    2.6240 n         1 MOL     -0.186586
    178 C54        -9.4000    2.3380    2.5200 c3        1 MOL     -0.054527
    179 H86        -8.8910    3.1240    1.9620 h1        1 MOL      0.065098
    180 H87       -10.3190    2.0620    2.0010 h1        1 MOL      0.065098
    181 H88        -9.6420    2.6990    3.5200 h1        1 MOL      0.065098
    182 H89        -8.8220    0.3190    3.1330 hn        1 MOL      0.206475
    183 Ca1        -0.4460   -2.0470    4.2510 Ca        1 MOL      1.826182
    184 O25        -2.1940   -3.1320    2.2530 oh        1 MOL     -0.944748
    185 H90        -3.0470   -2.8960    1.8980 ho        1 MOL      0.452198
    186 H91        -1.7070   -3.4800    1.4990 ho        1 MOL      0.452198
    187 O26        -1.9590   -3.5780    5.8620 oh        1 MOL     -0.944748
    188 H92        -2.7970   -3.1160    5.8940 ho        1 MOL      0.452198
    189 H93        -2.1820   -4.4870    6.0260 ho        1 MOL      0.452198
    190 O27        -0.0380    0.5740    5.0240 oh        1 MOL     -0.944748
    191 H94         0.6230    1.2660    5.1260 ho        1 MOL      0.452198
    192 H95        -0.7670    1.0160    4.5850 ho        1 MOL      0.452198
    193 O28         0.4500   -4.5490    4.2530 oh        1 MOL     -0.944748
    194 H96         1.3830   -4.6980    4.1180 ho        1 MOL      0.452198
    195 H97         0.0810   -5.4150    4.4090 ho        1 MOL      0.452198
@<TRIPOS>BOND
     1    1    2 1   
     2    1    4 1   
     3    1    5 1   
     4    1    6 1   
     5    2    3 2   
     6    2    7 1   
     7    7    8 1   
     8    7   15 1   
     9    8    9 1   
    10    8   11 1   
    11    8   16 1   
    12    9   10 2   
    13    9   19 1   
    14   11   12 1   
    15   11   17 1   
    16   11   18 1   
    17   12   13 1   
    18   12   14 1   
    19   19   20 1   
    20   19   28 1   
    21   20   21 1   
    22   20   23 1   
    23   20   29 1   
    24   21   22 2   
    25   21   41 1   
    26   23   24 1   
    27   23   30 1   
    28   23   31 1   
    29   24   25 1   
    30   24   32 1   
    31   24   33 1   
    32   25   26 1   
    33   25   34 1   
    34   25   35 1   
    35   26   27 1   
    36   26   36 1   
    37   26   37 1   
    38   27   38 1   
    39   27   39 1   
    40   27   40 1   
    41   41   42 1   
    42   41   49 1   
    43   42   43 1   
    44   42   45 1   
    45   42   50 1   
    46   43   44 2   
    47   43   53 1   
    48   45   46 1   
    49   45   51 1   
    50   45   52 1   
    51   46   47 1   
    52   46   48 1   
    53   53   54 1   
    54   53   57 1   
    55   54   55 1   
    56   54   58 1   
    57   54   59 1   
    58   55   56 2   
    59   55   60 1   
    60   60   61 1   
    61   60   68 1   
    62   61   62 1   
    63   61   64 1   
    64   61   69 1   
    65   62   63 2   
    66   62   72 1   
    67   64   65 1   
    68   64   70 1   
    69   64   71 1   
    70   65   66 1   
    71   65   67 1   
    72   72   73 1   
    73   72   76 1   
    74   73   74 1   
    75   73   77 1   
    76   73   78 1   
    77   74   75 2   
    78   74   79 1   
    79   79   80 1   
    80   79   86 1   
    81   80   81 1   
    82   80   83 1   
    83   80   87 1   
    84   81   82 2   
    85   81   93 1   
    86   83   84 1   
    87   83   85 1   
    88   83   88 1   
    89   84   90 1   
    90   84   91 1   
    91   84   92 1   
    92   85   89 1   
    93   93   94 1   
    94   93  101 1   
    95   94   95 1   
    96   94   97 1   
    97   94  102 1   
    98   95   96 2   
    99   95  112 1   
   100   97   98 1   
   101   97   99 1   
   102   97  103 1   
   103   98  100 1   
   104   98  104 1   
   105   98  105 1   
   106   99  106 1   
   107   99  107 1   
   108   99  108 1   
   109  100  109 1   
   110  100  110 1   
   111  100  111 1   
   112  112  113 1   
   113  112  119 1   
   114  113  114 1   
   115  113  116 1   
   116  113  120 1   
   117  114  115 2   
   118  114  126 1   
   119  116  117 1   
   120  116  118 1   
   121  116  121 1   
   122  117  123 1   
   123  117  124 1   
   124  117  125 1   
   125  118  122 1   
   126  126  127 1   
   127  126  133 1   
   128  127  128 1   
   129  127  130 1   
   130  127  134 1   
   131  128  129 2   
   132  128  140 1   
   133  130  131 1   
   134  130  132 1   
   135  130  135 1   
   136  131  137 1   
   137  131  138 1   
   138  131  139 1   
   139  132  136 1   
   140  140  141 1   
   141  140  149 1   
   142  141  142 1   
   143  141  144 1   
   144  141  150 1   
   145  142  143 2   
   146  142  162 1   
   147  144  145 1   
   148  144  151 1   
   149  144  152 1   
   150  145  146 1   
   151  145  153 1   
   152  145  154 1   
   153  146  147 1   
   154  146  155 1   
   155  146  156 1   
   156  147  148 1   
   157  147  157 1   
   158  147  158 1   
   159  148  159 1   
   160  148  160 1   
   161  148  161 1   
   162  162  163 1   
   163  162  171 1   
   164  163  164 1   
   165  163  166 1   
   166  163  172 1   
   167  164  165 2   
   168  164  177 1   
   169  166  167 1   
   170  166  173 1   
   171  166  174 1   
   172  167  168 1   
   173  167  175 1   
   174  167  176 1   
   175  168  169 1   
   176  168  170 1   
   177  177  178 1   
   178  177  182 1   
   179  178  179 1   
   180  178  180 1   
   181  178  181 1   
   182  184  185 1   
   183  184  186 1   
   184  187  188 1   
   185  187  189 1   
   186  190  191 1   
   187  190  192 1   
   188  193  194 1   
   189  193  195 1   
@<TRIPOS>SUBSTRUCTURE
     1 MOL         1 TEMP              0 ****  ****    0 ROOT
