@<TRIPOS>MOLECULE
MOL
  187   181     1     0     0
SMALL
resp


@<TRIPOS>ATOM
      1 C1         12.1350   -5.3620    0.7140 c3        1 MOL     -0.200510
      2 C2         10.6520   -5.1170    0.3890 c         1 MOL      0.449361
      3 O1          9.8290   -6.0270    0.5010 o         1 MOL     -0.530267
      4 H1         12.5020   -4.5620    1.3580 hc        1 MOL      0.047925
      5 H2         12.2420   -6.3180    1.2250 hc        1 MOL      0.047925
      6 H3         12.7120   -5.3760   -0.2110 hc        1 MOL      0.047925
      7 N1         10.2240   -3.8220    0.1830 n         1 MOL     -0.232281
      8 C3         11.0270   -2.6830   -0.2370 c3        1 MOL      0.341835
      9 C4         10.3300   -1.8560   -1.3370 c         1 MOL      0.458967
     10 O2         10.5230   -0.6750   -1.4130 o         1 MOL     -0.578604
     11 C5         11.5400   -1.7980    0.8440 c3        1 MOL     -0.465136
     12 C6         10.3970   -1.2200    1.6700 c         1 MOL      0.950920
     13 O3         10.5530   -0.0810    2.1900 o         1 MOL     -0.803275
     14 O4          9.4280   -1.8980    2.0140 o         1 MOL     -0.803275
     15 H4          9.2120   -3.8010    0.1410 hn        1 MOL      0.313578
     16 H5         11.8170   -3.1370   -0.8490 h1        1 MOL     -0.048335
     17 H6         12.1140   -0.9670    0.4400 hc        1 MOL      0.086216
     18 H7         12.2060   -2.4370    1.4370 hc        1 MOL      0.086216
     19 N2          9.4920   -2.4710   -2.1600 n         1 MOL     -0.410353
     20 C7          8.7450   -1.8460   -3.2330 c3        1 MOL      0.670793
     21 C8          7.2130   -2.0530   -3.1390 c         1 MOL      0.241940
     22 O5          6.4950   -2.0910   -4.1200 o         1 MOL     -0.544867
     23 C9          9.3890   -2.2320   -4.5970 c3        1 MOL     -0.390089
     24 H8          9.5270   -3.4800   -2.1790 hn        1 MOL      0.130995
     25 H9          8.9470   -0.7800   -3.2330 h1        1 MOL     -0.072816
     26 H10         9.1210   -1.5950   -5.4440 hc        1 MOL      0.078957
     27 H11        10.4610   -2.1160   -4.4210 hc        1 MOL      0.078957
     28 H12         9.0930   -3.2440   -4.8650 hc        1 MOL      0.078957
     29 N3          6.7470   -2.0600   -1.9110 n         1 MOL     -0.120820
     30 C10         5.3570   -2.0760   -1.6050 c3        1 MOL      0.249508
     31 C11         4.7970   -0.6750   -1.7270 c         1 MOL      0.598192
     32 O6          5.5090    0.2940   -1.6840 o         1 MOL     -0.511279
     33 C12         5.0830   -2.7400   -0.2610 c3        1 MOL     -0.389641
     34 C13         6.2910   -2.7450    0.6510 c         1 MOL      0.871927
     35 O7          7.1260   -3.6640    0.5960 o         1 MOL     -0.729734
     36 O8          6.4010   -1.8610    1.5700 o         1 MOL     -0.729734
     37 H13         7.2910   -1.7770   -1.1090 hn        1 MOL     -0.114087
     38 H14         4.8910   -2.7050   -2.3610 h1        1 MOL      0.015864
     39 H15         4.8170   -3.7610   -0.5310 hc        1 MOL      0.082754
     40 H16         4.1550   -2.3060    0.1300 hc        1 MOL      0.082754
     41 N4          3.5160   -0.5080   -1.8900 n         1 MOL     -0.580174
     42 C14         2.7640    0.7810   -2.0960 c3        1 MOL      0.047446
     43 C15         3.0540    1.9150   -1.1290 c         1 MOL      0.530416
     44 O9          3.5000    1.6190    0.0020 o         1 MOL     -0.516590
     45 H17         2.9080   -1.2880   -1.6850 hn        1 MOL      0.331837
     46 H18         1.7070    0.5420   -2.1620 h1        1 MOL      0.085079
     47 H19         3.0370    1.1050   -3.1050 h1        1 MOL      0.085079
     48 N5          2.8640    3.1190   -1.4770 n         1 MOL     -0.507754
     49 C16         3.1510    4.2460   -0.6260 c3        1 MOL      0.235541
     50 C17         1.8580    4.9900    0.0300 c         1 MOL      0.493781
     51 O10         2.0460    6.0710    0.6330 o         1 MOL     -0.532330
     52 C18         4.1470    5.2350   -1.2240 c3        1 MOL     -0.271642
     53 C19         5.4090    4.5510   -1.7050 c         1 MOL      0.726541
     54 N6          5.5180    4.2330   -2.9510 n         1 MOL     -0.807159
     55 O11         6.2500    4.1850   -0.9450 o         1 MOL     -0.612166
     56 H20         2.4190    3.3420   -2.3470 hn        1 MOL      0.280364
     57 H21         3.5810    3.8420    0.2890 h1        1 MOL      0.027052
     58 H22         4.4410    6.0770   -0.5950 hc        1 MOL      0.076147
     59 H23         3.7350    5.7770   -2.0750 hc        1 MOL      0.076147
     60 H24         4.8340    4.5150   -3.6410 hn        1 MOL      0.370860
     61 H25         6.2780    3.5990   -3.1680 hn        1 MOL      0.370860
     62 N7          0.6460    4.4340   -0.0800 n         1 MOL     -0.514368
     63 C20        -0.6090    5.1360    0.2310 c3        1 MOL      0.118951
     64 C21        -1.2210    5.9570   -0.9080 c         1 MOL      0.544622
     65 O12        -0.6150    6.0000   -2.0480 o         1 MOL     -0.593695
     66 H26         0.5530    3.5360   -0.5300 hn        1 MOL      0.335864
     67 H27        -0.5390    5.7830    1.1080 h1        1 MOL      0.081774
     68 H28        -1.3460    4.3540    0.3960 h1        1 MOL      0.081774
     69 N8         -2.3290    6.5870   -0.7470 n         1 MOL     -0.488932
     70 C22        -3.1260    6.7960    0.4430 c3        1 MOL     -0.039245
     71 C23        -4.2930    5.7960    0.6510 c         1 MOL      0.398092
     72 O13        -4.8250    5.6090    1.7310 o         1 MOL     -0.496949
     73 C24        -3.6040    8.2620    0.6010 c3        1 MOL      0.356973
     74 C25        -2.3580    9.1080    0.7550 c3        1 MOL     -0.429243
     75 O14        -4.3970    8.6790   -0.5170 oh        1 MOL     -0.591031
     76 H29        -2.7210    7.1160   -1.5150 hn        1 MOL      0.332375
     77 H30        -2.4400    6.6890    1.2890 h1        1 MOL      0.110100
     78 H31        -4.0470    8.3080    1.5930 h1        1 MOL      0.006463
     79 H32        -4.6950    9.5420   -0.2200 ho        1 MOL      0.385690
     80 H33        -1.7810    9.2420   -0.1700 hc        1 MOL      0.105000
     81 H34        -2.7970   10.0820    0.9720 hc        1 MOL      0.105000
     82 H35        -1.7970    8.7080    1.5950 hc        1 MOL      0.105000
     83 N9         -4.6270    5.0130   -0.3900 n         1 MOL     -0.357377
     84 C26        -5.4030    3.7530   -0.3190 c3        1 MOL     -0.064995
     85 C27        -4.5330    2.6610    0.2720 c         1 MOL      0.704273
     86 O15        -3.3100    2.6070   -0.0120 o         1 MOL     -0.579317
     87 C28        -5.9710    3.6580   -1.7640 c3        1 MOL      0.144965
     88 C29        -7.3040    4.4590   -1.7780 c3        1 MOL      0.203640
     89 C30        -6.2480    2.1970   -2.0940 c3        1 MOL     -0.148346
     90 C31        -7.8200    4.5330   -3.1840 c3        1 MOL     -0.313684
     91 H36        -4.2470    5.3290   -1.2680 hn        1 MOL      0.240727
     92 H37        -6.2730    3.9930    0.2920 h1        1 MOL      0.050768
     93 H38        -5.2810    4.0920   -2.4880 hc        1 MOL      0.010065
     94 H39        -7.1410    5.5040   -1.5010 hc        1 MOL     -0.043950
     95 H40        -8.0470    3.9870   -1.1290 hc        1 MOL     -0.043950
     96 H41        -6.5230    2.1890   -3.1540 hc        1 MOL      0.039566
     97 H42        -5.3510    1.5990   -1.9290 hc        1 MOL      0.039566
     98 H43        -7.1040    1.8300   -1.5400 hc        1 MOL      0.039566
     99 H44        -8.1870    3.5140   -3.3090 hc        1 MOL      0.056272
    100 H45        -8.6030    5.2630   -3.3820 hc        1 MOL      0.056272
    101 H46        -6.9830    4.7780   -3.8340 hc        1 MOL      0.056272
    102 N10        -5.0230    1.6400    1.0020 n         1 MOL     -0.525983
    103 C32        -6.4360    1.4700    1.4780 c3        1 MOL      0.011838
    104 C33        -6.7920   -0.0390    1.4580 c         1 MOL      0.629895
    105 O16        -5.9830   -0.9110    1.7400 o         1 MOL     -0.480411
    106 C34        -6.7470    2.1640    2.8230 c3        1 MOL     -0.142596
    107 C35        -5.7470    1.7460    3.8710 c         1 MOL      0.707843
    108 O17        -4.6240    2.3160    3.8850 o         1 MOL     -0.724034
    109 O18        -6.1090    0.9190    4.6840 o         1 MOL     -0.724034
    110 H47        -4.3280    1.0230    1.3760 hn        1 MOL      0.339229
    111 H48        -7.1370    1.9800    0.8300 h1        1 MOL      0.048978
    112 H49        -7.7710    1.9980    3.1390 hc        1 MOL      0.011966
    113 H50        -6.7410    3.2260    2.6050 hc        1 MOL      0.011966
    114 N11        -8.0690   -0.3360    1.1380 n         1 MOL     -0.618333
    115 C36        -8.6440   -1.6860    0.9120 c3        1 MOL      0.301115
    116 C37        -8.5940   -2.0730   -0.6080 c         1 MOL      0.392156
    117 O19        -8.6760   -1.1240   -1.3630 o         1 MOL     -0.526937
    118 C38       -10.0580   -1.6620    1.4170 c3        1 MOL     -0.034108
    119 C39       -10.9200   -2.8470    1.1020 ca        1 MOL      0.022362
    120 C40       -11.7340   -2.8430   -0.0420 ca        1 MOL     -0.141675
    121 C41       -11.0230   -3.8730    2.0360 ca        1 MOL     -0.141675
    122 C42       -12.6050   -3.9500   -0.2380 ca        1 MOL     -0.118763
    123 C43       -11.8480   -5.0320    1.8020 ca        1 MOL     -0.118763
    124 C44       -12.6050   -5.0660    0.6360 ca        1 MOL     -0.123068
    125 H51        -8.7040    0.4440    1.0810 hn        1 MOL      0.286818
    126 H52        -8.0880   -2.4080    1.5100 h1        1 MOL      0.015057
    127 H53       -10.6040   -0.8060    1.0470 hc        1 MOL      0.031200
    128 H54       -10.0850   -1.4020    2.4740 hc        1 MOL      0.031200
    129 H55       -11.6700   -2.0080   -0.7250 ha        1 MOL      0.123682
    130 H56       -10.3720   -3.7840    2.8980 ha        1 MOL      0.123682
    131 H57       -13.2620   -3.9500   -1.0870 ha        1 MOL      0.110151
    132 H58       -11.7150   -5.8050    2.5390 ha        1 MOL      0.110151
    133 H59       -13.3060   -5.8560    0.3910 ha        1 MOL      0.097805
    134 N12        -8.5800   -3.3580   -1.0410 n         1 MOL     -0.057829
    135 C45        -8.3130   -4.5370   -0.1040 c3        1 MOL      0.080148
    136 C46        -6.8470   -4.6780    0.2720 c         1 MOL      0.548325
    137 O20        -6.6140   -4.8660    1.4540 o         1 MOL     -0.581254
    138 C47        -8.7360   -5.7490   -0.8790 c3        1 MOL     -0.238126
    139 C48        -8.6820   -5.3690   -2.3400 c3        1 MOL      0.048165
    140 C49        -9.0760   -3.9030   -2.2630 c3        1 MOL     -0.175030
    141 H60        -8.9730   -4.4410    0.7500 h1        1 MOL      0.015547
    142 H61        -8.0750   -6.6060   -0.7480 hc        1 MOL      0.078397
    143 H62        -9.7790   -5.9570   -0.6120 hc        1 MOL      0.078397
    144 H63        -7.6820   -5.3940   -2.7560 hc        1 MOL      0.019035
    145 H64        -9.3880   -5.9220   -2.9490 hc        1 MOL      0.019035
    146 H65        -8.5980   -3.4140   -3.1100 h1        1 MOL      0.073915
    147 H66       -10.1480   -3.7480   -2.1540 h1        1 MOL      0.073915
    148 N13        -5.8640   -4.4380   -0.5540 n         1 MOL     -0.501473
    149 C50        -4.4150   -4.3500   -0.3290 c3        1 MOL      0.163326
    150 C51        -3.7330   -5.7630   -0.3970 c         1 MOL      0.411700
    151 O21        -3.2900   -6.2210   -1.4520 o         1 MOL     -0.560919
    152 C52        -3.6840   -3.3760   -1.3440 c3        1 MOL     -0.092487
    153 C53        -4.1090   -1.9470   -1.3800 c3        1 MOL     -0.260268
    154 C54        -3.3840   -1.0800   -2.3970 c         1 MOL      0.813888
    155 O22        -4.0490   -0.3880   -3.2040 o         1 MOL     -0.757217
    156 O23        -2.1610   -1.0500   -2.4670 o         1 MOL     -0.757217
    157 H67        -6.1380   -4.3490   -1.5210 hn        1 MOL      0.343632
    158 H68        -4.2020   -3.9570    0.6700 h1        1 MOL      0.109407
    159 H69        -3.7940   -3.7950   -2.3350 hc        1 MOL      0.047764
    160 H70        -2.6260   -3.4720   -1.0860 hc        1 MOL      0.047764
    161 H71        -3.7820   -1.5040   -0.4330 hc        1 MOL      0.041168
    162 H72        -5.1920   -1.8610   -1.4450 hc        1 MOL      0.041168
    163 N14        -3.4410   -6.5370    0.7000 n         1 MOL     -0.327945
    164 C55        -3.7140   -6.2100    2.0950 c3        1 MOL     -0.179877
    165 H73        -3.3680   -5.1970    2.3050 h1        1 MOL      0.087624
    166 H74        -4.7860   -6.2730    2.2810 h1        1 MOL      0.087624
    167 H75        -3.1900   -6.9130    2.7440 h1        1 MOL      0.087624
    168 H76        -3.0650   -7.4570    0.5070 hn        1 MOL      0.264643
    169 Ca1         7.7650    0.0430    2.5050 Ca        1 MOL      1.683319
    170 O24         5.5910   -0.4080    3.8670 oh        1 MOL     -0.801358
    171 H77         5.5460   -0.5890    4.8060 ho        1 MOL      0.399525
    172 H78         4.9260   -0.9700    3.4830 ho        1 MOL      0.399525
    173 O25         8.5310   -1.0790    4.8890 oh        1 MOL     -0.801358
    174 H79         8.2160   -0.7570    5.7260 ho        1 MOL      0.399525
    175 H80         9.2910   -1.6240    5.1150 ho        1 MOL      0.399525
    176 O26         8.3750    2.6090    1.8570 oh        1 MOL     -0.801358
    177 H81         8.8340    2.5420    1.0260 ho        1 MOL      0.399525
    178 H82         7.8670    3.4110    1.7920 ho        1 MOL      0.399525
    179 O27         7.5790    1.8240    4.6630 oh        1 MOL     -0.801358
    180 H83         6.9790    2.5460    4.8460 ho        1 MOL      0.399525
    181 H84         8.1640    1.8120    5.4260 ho        1 MOL      0.399525
    182 O28         5.7050    1.4560    1.5010 oh        1 MOL     -0.801358
    183 H85         4.8310    1.2450    1.1690 ho        1 MOL      0.399525
    184 H86         5.8100    2.3940    1.3120 ho        1 MOL      0.399525
    185 O29         7.9550    0.0580   -0.2670 oh        1 MOL     -0.801358
    186 H87         7.3880    0.5300   -0.8820 ho        1 MOL      0.399525
    187 H88         8.8280    0.0940   -0.6570 ho        1 MOL      0.399525
@<TRIPOS>BOND
     1    1    2 1   
     2    1    4 1   
     3    1    5 1   
     4    1    6 1   
     5    2    3 2   
     6    2    7 1   
     7    7    8 1   
     8    7   15 1   
     9    8    9 1   
    10    8   11 1   
    11    8   16 1   
    12    9   10 2   
    13    9   19 1   
    14   11   12 1   
    15   11   17 1   
    16   11   18 1   
    17   12   13 1   
    18   12   14 1   
    19   19   20 1   
    20   19   24 1   
    21   20   21 1   
    22   20   23 1   
    23   20   25 1   
    24   21   22 2   
    25   21   29 1   
    26   23   26 1   
    27   23   27 1   
    28   23   28 1   
    29   29   30 1   
    30   29   37 1   
    31   30   31 1   
    32   30   33 1   
    33   30   38 1   
    34   31   32 2   
    35   31   41 1   
    36   33   34 1   
    37   33   39 1   
    38   33   40 1   
    39   34   35 1   
    40   34   36 1   
    41   41   42 1   
    42   41   45 1   
    43   42   43 1   
    44   42   46 1   
    45   42   47 1   
    46   43   44 2   
    47   43   48 1   
    48   48   49 1   
    49   48   56 1   
    50   49   50 1   
    51   49   52 1   
    52   49   57 1   
    53   50   51 2   
    54   50   62 1   
    55   52   53 1   
    56   52   58 1   
    57   52   59 1   
    58   53   54 1   
    59   53   55 2   
    60   54   60 1   
    61   54   61 1   
    62   62   63 1   
    63   62   66 1   
    64   63   64 1   
    65   63   67 1   
    66   63   68 1   
    67   64   65 2   
    68   64   69 1   
    69   69   70 1   
    70   69   76 1   
    71   70   71 1   
    72   70   73 1   
    73   70   77 1   
    74   71   72 2   
    75   71   83 1   
    76   73   74 1   
    77   73   75 1   
    78   73   78 1   
    79   74   80 1   
    80   74   81 1   
    81   74   82 1   
    82   75   79 1   
    83   83   84 1   
    84   83   91 1   
    85   84   85 1   
    86   84   87 1   
    87   84   92 1   
    88   85   86 2   
    89   85  102 1   
    90   87   88 1   
    91   87   89 1   
    92   87   93 1   
    93   88   90 1   
    94   88   94 1   
    95   88   95 1   
    96   89   96 1   
    97   89   97 1   
    98   89   98 1   
    99   90   99 1   
   100   90  100 1   
   101   90  101 1   
   102  102  103 1   
   103  102  110 1   
   104  103  104 1   
   105  103  106 1   
   106  103  111 1   
   107  104  105 2   
   108  104  114 1   
   109  106  107 1   
   110  106  112 1   
   111  106  113 1   
   112  107  108 1   
   113  107  109 1   
   114  114  115 1   
   115  114  125 1   
   116  115  116 1   
   117  115  118 1   
   118  115  126 1   
   119  116  117 2   
   120  116  134 1   
   121  118  119 1   
   122  118  127 1   
   123  118  128 1   
   124  119  120 ar  
   125  119  121 ar  
   126  120  122 ar  
   127  120  129 1   
   128  121  123 ar  
   129  121  130 1   
   130  122  124 ar  
   131  122  131 1   
   132  123  124 ar  
   133  123  132 1   
   134  124  133 1   
   135  134  135 1   
   136  134  140 1   
   137  135  136 1   
   138  135  138 1   
   139  135  141 1   
   140  136  137 2   
   141  136  148 1   
   142  138  139 1   
   143  138  142 1   
   144  138  143 1   
   145  139  140 1   
   146  139  144 1   
   147  139  145 1   
   148  140  146 1   
   149  140  147 1   
   150  148  149 1   
   151  148  157 1   
   152  149  150 1   
   153  149  152 1   
   154  149  158 1   
   155  150  151 2   
   156  150  163 1   
   157  152  153 1   
   158  152  159 1   
   159  152  160 1   
   160  153  154 1   
   161  153  161 1   
   162  153  162 1   
   163  154  155 1   
   164  154  156 1   
   165  163  164 1   
   166  163  168 1   
   167  164  165 1   
   168  164  166 1   
   169  164  167 1   
   170  170  171 1   
   171  170  172 1   
   172  173  174 1   
   173  173  175 1   
   174  176  177 1   
   175  176  178 1   
   176  179  180 1   
   177  179  181 1   
   178  182  183 1   
   179  182  184 1   
   180  185  186 1   
   181  185  187 1   
@<TRIPOS>SUBSTRUCTURE
     1 MOL         1 TEMP              0 ****  ****    0 ROOT
