@<TRIPOS>MOLECULE
MOL
  182   178     1     0     0
SMALL
resp


@<TRIPOS>ATOM
      1 C1          6.2620   -2.1920   -1.6740 c3        1 MOL     -0.287959
      2 C2          7.1040   -1.5890   -0.5010 c         1 MOL      0.552517
      3 O1          6.5500   -1.4020    0.5910 o         1 MOL     -0.506179
      4 H1          5.3120   -2.5630   -1.2860 hc        1 MOL      0.091595
      5 H2          6.0720   -1.4210   -2.4200 hc        1 MOL      0.091595
      6 H3          6.8120   -3.0140   -2.1320 hc        1 MOL      0.091595
      7 N1          8.3570   -1.2110   -0.8020 n         1 MOL     -0.387444
      8 C3          9.4410   -0.7890    0.2270 c3        1 MOL     -0.034267
      9 C4          8.9920    0.5720    0.8010 c         1 MOL      0.592591
     10 O2          9.4570    0.8820    1.8840 o         1 MOL     -0.578403
     11 C5          9.9270   -1.8860    1.2420 c3        1 MOL     -0.122860
     12 C6         10.4000   -3.1660    0.5840 c         1 MOL      0.693364
     13 O3         11.0260   -3.0950   -0.5030 o         1 MOL     -0.654265
     14 O4         10.1480   -4.2550    1.1560 o         1 MOL     -0.654265
     15 H4          8.6460   -1.4310   -1.7520 hn        1 MOL      0.251037
     16 H5         10.3420   -0.5040   -0.3310 h1        1 MOL      0.059044
     17 H6          9.1920   -1.9560    2.0440 hc        1 MOL      0.063325
     18 H7         10.8190   -1.6160    1.8090 hc        1 MOL      0.063325
     19 N2          8.1550    1.3450    0.2120 n         1 MOL     -0.390265
     20 C7          7.6520    2.6340    0.6480 c3        1 MOL      0.265140
     21 C8          6.1450    2.7070    0.6500 c         1 MOL      0.517572
     22 O5          5.5790    3.8070    0.5790 o         1 MOL     -0.582612
     23 C9          8.3530    3.7940   -0.0990 c3        1 MOL     -0.405725
     24 C10         8.1640    3.6420   -1.6530 c3        1 MOL      0.208813
     25 C11         8.9620    4.8330   -2.2380 c3        1 MOL     -0.136168
     26 C12         8.8100    4.8620   -3.7790 c3        1 MOL      0.017345
     27 N3          9.0330    6.2440   -4.2730 n4        1 MOL     -0.100974
     28 H8          7.8240    0.9440   -0.6490 hn        1 MOL      0.150257
     29 H9          7.8960    2.8130    1.6920 h1        1 MOL      0.077935
     30 H10         9.4100    3.7920    0.1630 hc        1 MOL      0.115479
     31 H11         7.9030    4.7350    0.2160 hc        1 MOL      0.115479
     32 H12         7.1230    3.6210   -1.9610 hc        1 MOL     -0.013734
     33 H13         8.4610    2.6240   -1.9260 hc        1 MOL     -0.013734
     34 H14        10.0190    4.7200   -2.0320 hc        1 MOL      0.068064
     35 H15         8.4600    5.7140   -1.8250 hc        1 MOL      0.068064
     36 H16         7.7900    4.5260   -3.9920 hx        1 MOL      0.067217
     37 H17         9.5300    4.1810   -4.2250 hx        1 MOL      0.067217
     38 H18         8.3210    6.9500   -4.0960 hn        1 MOL      0.206945
     39 H19         9.9000    6.6360   -3.9320 hn        1 MOL      0.206945
     40 H20         9.2770    6.2630   -5.2480 hn        1 MOL      0.206945
     41 N4          5.3710    1.5630    0.6860 n         1 MOL     -0.498986
     42 C13         3.9680    1.4820    0.8190 c3        1 MOL      0.132877
     43 C14         3.5390    1.3980    2.3150 c         1 MOL      0.515068
     44 O6          3.9420    0.4890    3.0010 o         1 MOL     -0.496321
     45 C15         3.3550    0.3530   -0.1660 c3        1 MOL      0.040995
     46 C16         1.8080    0.1990   -0.1110 c         1 MOL      0.652108
     47 O7          1.1650    0.2740    0.9550 o         1 MOL     -0.744201
     48 O8          1.0340    0.0860   -1.0810 o         1 MOL     -0.744201
     49 H21         5.8230    0.6850    0.9080 hn        1 MOL      0.248314
     50 H22         3.5320    2.3870    0.3880 h1        1 MOL      0.008349
     51 H23         3.8470   -0.6000    0.0510 hc        1 MOL     -0.002099
     52 H24         3.6500    0.6110   -1.1880 hc        1 MOL     -0.002099
     53 N5          2.6960    2.2610    2.7770 n         1 MOL     -0.243778
     54 C17         2.3900    2.2970    4.2100 c3        1 MOL     -0.269829
     55 C18         1.7240    1.0570    4.8430 c         1 MOL      0.590161
     56 O9          1.9420    0.7940    6.0250 o         1 MOL     -0.545977
     57 H25         2.3300    2.9360    2.1250 hn        1 MOL      0.215396
     58 H26         1.9010    3.2350    4.4780 h1        1 MOL      0.136288
     59 H27         3.3730    2.3590    4.6920 h1        1 MOL      0.136288
     60 N6          1.0180    0.2410    4.0420 n         1 MOL     -0.454722
     61 C19         0.2520   -0.9440    4.4860 c3        1 MOL      0.146454
     62 C20         0.6430   -2.1470    3.6230 c         1 MOL      0.448849
     63 O10         0.0780   -3.1970    3.8740 o         1 MOL     -0.551586
     64 C21        -1.2650   -0.6670    4.4660 c3        1 MOL     -0.378524
     65 C22        -1.9050   -0.5210    3.1600 c         1 MOL      0.902796
     66 N7         -3.0240   -1.1430    2.9100 n         1 MOL     -0.843215
     67 O11        -1.4560    0.1780    2.2390 o         1 MOL     -0.836767
     68 H28         0.9190    0.4280    3.0570 hn        1 MOL      0.317936
     69 H29         0.4660   -1.2380    5.5140 h1        1 MOL      0.115756
     70 H30        -1.3690    0.2800    5.0050 hc        1 MOL      0.120491
     71 H31        -1.7670   -1.4100    5.0850 hc        1 MOL      0.120491
     72 H32        -3.4210   -1.8330    3.5180 hn        1 MOL      0.374296
     73 H33        -3.3840   -1.0090    1.9750 hn        1 MOL      0.374296
     74 N8          1.5340   -2.1800    2.6160 n         1 MOL     -0.238946
     75 C23         2.0540   -3.3590    1.8970 c3        1 MOL     -0.161006
     76 C24         1.1640   -3.7870    0.7210 c         1 MOL      0.504984
     77 O12         1.0310   -4.9570    0.4410 o         1 MOL     -0.540978
     78 H34         1.8990   -1.2890    2.3010 hn        1 MOL      0.149433
     79 H35         2.1700   -4.1910    2.5910 h1        1 MOL      0.138254
     80 H36         3.0760   -3.2270    1.5370 h1        1 MOL      0.138254
     81 N9          0.5270   -2.8370    0.0300 n         1 MOL     -0.284228
     82 C25        -0.4850   -3.0690   -0.9900 c3        1 MOL      0.238515
     83 C26        -1.7190   -2.2990   -0.8450 c         1 MOL      0.518505
     84 O13        -1.7400   -1.1850   -0.2830 o         1 MOL     -0.544385
     85 C27        -0.0280   -2.7680   -2.4580 c3        1 MOL      0.037573
     86 C28         1.2470   -3.4430   -2.9520 ca        1 MOL     -0.047322
     87 C29         1.2030   -4.8030   -3.1600 ca        1 MOL     -0.140144
     88 C30         2.4710   -2.7600   -3.1170 ca        1 MOL     -0.140144
     89 C31         2.2810   -5.5180   -3.6220 ca        1 MOL     -0.167999
     90 C32         3.5770   -3.4800   -3.6340 ca        1 MOL     -0.167999
     91 C33         3.4330   -4.8600   -3.9170 ca        1 MOL      0.255645
     92 O14         4.4840   -5.6610   -4.4330 oh        1 MOL     -0.516064
     93 H37         0.6490   -1.9030    0.4040 hn        1 MOL      0.218400
     94 H38        -0.8400   -4.1010   -0.9680 h1        1 MOL      0.003003
     95 H39         0.1550   -1.6960   -2.5310 hc        1 MOL     -0.007331
     96 H40        -0.8130   -3.0130   -3.1670 hc        1 MOL     -0.007331
     97 H41         0.2620   -5.3030   -2.9670 ha        1 MOL      0.107311
     98 H42         2.5640   -1.7050   -2.9090 ha        1 MOL      0.107311
     99 H43         2.1590   -6.5840   -3.7890 ha        1 MOL      0.122479
    100 H44         4.4500   -2.9180   -3.8940 ha        1 MOL      0.122479
    101 H45         4.1620   -6.5640   -4.4700 ho        1 MOL      0.379616
    102 N10        -2.8440   -2.7480   -1.4460 n         1 MOL     -0.743202
    103 C34        -4.0280   -1.8690   -1.6160 c3        1 MOL      0.266196
    104 C35        -4.8070   -1.8710   -0.2600 c         1 MOL      0.395311
    105 O15        -4.9690   -0.8210    0.3470 o         1 MOL     -0.437630
    106 C36        -4.7910   -2.4150   -2.8590 c3        1 MOL     -0.016193
    107 C37        -3.9500   -2.6730   -4.1530 c3        1 MOL     -0.194115
    108 C38        -5.8760   -1.3890   -3.1490 c3        1 MOL     -0.332754
    109 C39        -3.0600   -1.6230   -4.8580 c3        1 MOL     -0.136558
    110 H46        -2.8050   -3.6690   -1.8620 hn        1 MOL      0.358045
    111 H47        -3.7160   -0.8740   -1.9220 h1        1 MOL      0.079139
    112 H48        -5.2760   -3.3480   -2.5740 hc        1 MOL     -0.026016
    113 H49        -4.5270   -2.9420   -5.0390 hc        1 MOL      0.092999
    114 H50        -3.2640   -3.5040   -3.9830 hc        1 MOL      0.092999
    115 H51        -6.4480   -1.6810   -4.0280 hc        1 MOL      0.111287
    116 H52        -6.5100   -1.5160   -2.2710 hc        1 MOL      0.111287
    117 H53        -5.4010   -0.4100   -3.1530 hc        1 MOL      0.111287
    118 H54        -3.6470   -0.8590   -5.3700 hc        1 MOL      0.058442
    119 H55        -2.5310   -1.1230   -4.0370 hc        1 MOL      0.058442
    120 H56        -2.3910   -2.1710   -5.5190 hc        1 MOL      0.058442
    121 N11        -5.3280   -3.0470    0.1840 n         1 MOL     -0.213306
    122 C40        -6.1680   -3.2040    1.3840 c3        1 MOL      0.071691
    123 C41        -7.4980   -2.4870    1.2240 c         1 MOL      0.157327
    124 O16        -8.1200   -1.9570    2.1710 o         1 MOL     -0.396831
    125 C42        -6.2700   -4.6810    1.8040 c3        1 MOL      0.109650
    126 O17        -5.0110   -5.2760    2.1470 oh        1 MOL     -0.618785
    127 H57        -5.0430   -3.8730   -0.3200 hn        1 MOL      0.251996
    128 H58        -5.7110   -2.6430    2.1980 h1        1 MOL      0.132242
    129 H59        -6.6390   -5.3510    1.0180 h1        1 MOL      0.046805
    130 H60        -6.8880   -4.7880    2.6980 h1        1 MOL      0.046805
    131 H61        -5.2190   -6.1710    2.4060 ho        1 MOL      0.429240
    132 N12        -7.9570   -2.5400   -0.0430 n         1 MOL     -0.202687
    133 C43        -9.0630   -1.6990   -0.5600 c3        1 MOL      0.253587
    134 C44        -9.0520   -0.1500   -0.3800 c         1 MOL      0.430154
    135 O18       -10.0980    0.5450   -0.2870 o         1 MOL     -0.509297
    136 C45       -10.4220   -2.3820   -0.2500 c3        1 MOL     -0.414428
    137 H62        -7.6490   -3.2700   -0.6700 hn        1 MOL      0.217021
    138 H63        -8.8500   -1.6740   -1.6300 h1        1 MOL     -0.004495
    139 H64       -11.2880   -1.7950   -0.5680 hc        1 MOL      0.119078
    140 H65       -10.3740   -3.3720   -0.6840 hc        1 MOL      0.119078
    141 H66       -10.5540   -2.4780    0.8310 hc        1 MOL      0.119078
    142 N13        -7.8460    0.3550   -0.2560 n         1 MOL     -0.374483
    143 C46        -7.6930    1.6860    0.4300 c3        1 MOL      0.386500
    144 C47        -6.7340    2.6770   -0.3350 c         1 MOL      0.281203
    145 O19        -5.9960    2.2960   -1.2510 o         1 MOL     -0.524053
    146 C48        -7.1780    1.3570    1.8190 c3        1 MOL     -0.123847
    147 H67        -7.0490   -0.2570   -0.3910 hn        1 MOL      0.063780
    148 H68        -8.6410    2.1860    0.5860 h1        1 MOL     -0.010047
    149 H69        -6.1780    0.9180    1.8600 hc        1 MOL      0.040545
    150 H70        -7.2230    2.2360    2.4620 hc        1 MOL      0.040545
    151 H71        -7.7570    0.5150    2.2070 hc        1 MOL      0.040545
    152 N14        -6.6770    3.8900    0.2480 n         1 MOL     -0.413091
    153 C49        -5.9030    5.0110   -0.1960 c3        1 MOL     -0.081865
    154 C50        -6.1380    5.5470   -1.5940 c         1 MOL      0.462730
    155 O20        -6.0940    6.7600   -1.6970 o         1 MOL     -0.517249
    156 C51        -4.3570    4.8440   -0.0370 c3        1 MOL      0.018529
    157 C52        -3.9830    4.7920    1.4250 c3        1 MOL      0.070429
    158 C53        -2.4290    4.6140    1.3230 c         1 MOL      0.560022
    159 O21        -1.6740    5.6250    1.4570 o         1 MOL     -0.671398
    160 O22        -1.9330    3.4650    1.3020 o         1 MOL     -0.671398
    161 H72        -7.2860    4.0700    1.0290 hn        1 MOL      0.338606
    162 H73        -6.2440    5.8060    0.4700 h1        1 MOL      0.116444
    163 H74        -3.9210    5.7280   -0.4910 hc        1 MOL      0.017738
    164 H75        -4.0120    3.9300   -0.4990 hc        1 MOL      0.017738
    165 H76        -4.4810    3.9700    1.9330 hc        1 MOL     -0.025310
    166 H77        -4.2210    5.7300    1.9250 hc        1 MOL     -0.025310
    167 N15        -6.4330    4.7770   -2.6750 n         1 MOL     -0.290234
    168 C54        -6.6630    5.2800   -4.0400 c3        1 MOL     -0.153443
    169 H78        -5.7520    5.1630   -4.6280 h1        1 MOL      0.088277
    170 H79        -7.4710    4.7150   -4.5050 h1        1 MOL      0.088277
    171 H80        -6.9340    6.3350   -3.9990 h1        1 MOL      0.088277
    172 H81        -6.4150    3.7810   -2.4930 hn        1 MOL      0.269169
    173 Ca1        -1.0110    1.4220   -0.0940 Ca        1 MOL      1.825317
    174 O23        -3.6140    1.2360   -0.5030 oh        1 MOL     -0.937614
    175 H82        -4.2700    1.7710   -0.9480 ho        1 MOL      0.454204
    176 H83        -4.0790    0.4670   -0.2020 ho        1 MOL      0.454204
    177 O24         1.0550    3.1630   -0.1630 oh        1 MOL     -0.937614
    178 H84         1.5640    3.5580   -0.8730 ho        1 MOL      0.454204
    179 H85         1.0770    3.8190    0.5390 ho        1 MOL      0.454204
    180 O25        -1.4340    2.6720   -2.5090 oh        1 MOL     -0.937614
    181 H86        -1.3740    2.2880   -3.3820 ho        1 MOL      0.454204
    182 H87        -1.3110    3.6130   -2.6520 ho        1 MOL      0.454204
@<TRIPOS>BOND
     1    1    2 1   
     2    1    4 1   
     3    1    5 1   
     4    1    6 1   
     5    2    3 2   
     6    2    7 1   
     7    7    8 1   
     8    7   15 1   
     9    8    9 1   
    10    8   11 1   
    11    8   16 1   
    12    9   10 2   
    13    9   19 1   
    14   11   12 1   
    15   11   17 1   
    16   11   18 1   
    17   12   13 1   
    18   12   14 1   
    19   19   20 1   
    20   19   28 1   
    21   20   21 1   
    22   20   23 1   
    23   20   29 1   
    24   21   22 2   
    25   21   41 1   
    26   23   24 1   
    27   23   30 1   
    28   23   31 1   
    29   24   25 1   
    30   24   32 1   
    31   24   33 1   
    32   25   26 1   
    33   25   34 1   
    34   25   35 1   
    35   26   27 1   
    36   26   36 1   
    37   26   37 1   
    38   27   38 1   
    39   27   39 1   
    40   27   40 1   
    41   41   42 1   
    42   41   49 1   
    43   42   43 1   
    44   42   45 1   
    45   42   50 1   
    46   43   44 2   
    47   43   53 1   
    48   45   46 1   
    49   45   51 1   
    50   45   52 1   
    51   46   47 1   
    52   46   48 1   
    53   53   54 1   
    54   53   57 1   
    55   54   55 1   
    56   54   58 1   
    57   54   59 1   
    58   55   56 2   
    59   55   60 1   
    60   60   61 1   
    61   60   68 1   
    62   61   62 1   
    63   61   64 1   
    64   61   69 1   
    65   62   63 2   
    66   62   74 1   
    67   64   65 1   
    68   64   70 1   
    69   64   71 1   
    70   65   66 1   
    71   65   67 2   
    72   66   72 1   
    73   66   73 1   
    74   74   75 1   
    75   74   78 1   
    76   75   76 1   
    77   75   79 1   
    78   75   80 1   
    79   76   77 2   
    80   76   81 1   
    81   81   82 1   
    82   81   93 1   
    83   82   83 1   
    84   82   85 1   
    85   82   94 1   
    86   83   84 2   
    87   83  102 1   
    88   85   86 1   
    89   85   95 1   
    90   85   96 1   
    91   86   87 ar  
    92   86   88 ar  
    93   87   89 ar  
    94   87   97 1   
    95   88   90 ar  
    96   88   98 1   
    97   89   91 ar  
    98   89   99 1   
    99   90   91 ar  
   100   90  100 1   
   101   91   92 1   
   102   92  101 1   
   103  102  103 1   
   104  102  110 1   
   105  103  104 1   
   106  103  106 1   
   107  103  111 1   
   108  104  105 2   
   109  104  121 1   
   110  106  107 1   
   111  106  108 1   
   112  106  112 1   
   113  107  109 1   
   114  107  113 1   
   115  107  114 1   
   116  108  115 1   
   117  108  116 1   
   118  108  117 1   
   119  109  118 1   
   120  109  119 1   
   121  109  120 1   
   122  121  122 1   
   123  121  127 1   
   124  122  123 1   
   125  122  125 1   
   126  122  128 1   
   127  123  124 2   
   128  123  132 1   
   129  125  126 1   
   130  125  129 1   
   131  125  130 1   
   132  126  131 1   
   133  132  133 1   
   134  132  137 1   
   135  133  134 1   
   136  133  136 1   
   137  133  138 1   
   138  134  135 2   
   139  134  142 1   
   140  136  139 1   
   141  136  140 1   
   142  136  141 1   
   143  142  143 1   
   144  142  147 1   
   145  143  144 1   
   146  143  146 1   
   147  143  148 1   
   148  144  145 2   
   149  144  152 1   
   150  146  149 1   
   151  146  150 1   
   152  146  151 1   
   153  152  153 1   
   154  152  161 1   
   155  153  154 1   
   156  153  156 1   
   157  153  162 1   
   158  154  155 2   
   159  154  167 1   
   160  156  157 1   
   161  156  163 1   
   162  156  164 1   
   163  157  158 1   
   164  157  165 1   
   165  157  166 1   
   166  158  159 1   
   167  158  160 1   
   168  167  168 1   
   169  167  172 1   
   170  168  169 1   
   171  168  170 1   
   172  168  171 1   
   173  174  175 1   
   174  174  176 1   
   175  177  178 1   
   176  177  179 1   
   177  180  181 1   
   178  180  182 1   
@<TRIPOS>SUBSTRUCTURE
     1 MOL         1 TEMP              0 ****  ****    0 ROOT
