@<TRIPOS>MOLECULE
MOL
  198   191     1     0     0
SMALL
resp


@<TRIPOS>ATOM
      1 C1         -7.3050    9.4580    2.5280 c3        1 MOL     -0.360793
      2 C2         -7.1370    7.9310    2.2380 c         1 MOL      0.715965
      3 O1         -7.1020    7.1110    3.1310 o         1 MOL     -0.556121
      4 H1         -7.1840   10.0190    1.6010 hc        1 MOL      0.084055
      5 H2         -8.2980    9.6440    2.9380 hc        1 MOL      0.084055
      6 H3         -6.5490    9.7780    3.2460 hc        1 MOL      0.084055
      7 N1         -7.1910    7.6320    0.9190 n         1 MOL     -0.698030
      8 C3         -7.0230    6.3360    0.3250 c3        1 MOL      0.455297
      9 C4         -5.7190    5.9720   -0.4780 c         1 MOL      0.368107
     10 O2         -5.1550    6.9530   -0.9520 o         1 MOL     -0.567432
     11 C5         -8.3440    6.0220   -0.3850 c3        1 MOL     -0.164191
     12 C6         -8.5830    4.4770   -0.5720 c         1 MOL      0.613974
     13 O3         -9.5410    4.1700   -1.2850 o         1 MOL     -0.643566
     14 O4         -7.8040    3.5910   -0.0710 o         1 MOL     -0.643566
     15 H4         -7.5730    8.3460    0.3190 hn        1 MOL      0.318405
     16 H5         -7.0300    5.6350    1.1570 h1        1 MOL     -0.048840
     17 H6         -8.3480    6.6030   -1.3110 hc        1 MOL      0.029886
     18 H7         -9.1780    6.4550    0.1680 hc        1 MOL      0.029886
     19 N2         -5.2710    4.7100   -0.6200 n         1 MOL     -0.350628
     20 C7         -4.2600    4.2110   -1.5220 c3        1 MOL      0.616856
     21 C8         -4.7380    3.2630   -2.6740 c         1 MOL      0.305265
     22 O5         -4.6810    3.6360   -3.8270 o         1 MOL     -0.556985
     23 C9         -3.1280    3.5110   -0.7640 c3        1 MOL     -0.703707
     24 C10        -2.1060    4.4400   -0.1480 c3        1 MOL      0.283265
     25 C11        -1.1370    5.0500   -1.1230 c3        1 MOL     -0.030552
     26 C12        -0.2360    6.1670   -0.5370 c3        1 MOL      0.108232
     27 N3         -0.3070    7.4760   -1.2450 n4        1 MOL     -0.313725
     28 H8         -5.9110    3.9980   -0.3090 hn        1 MOL      0.111700
     29 H9         -3.8040    5.0500   -2.0660 h1        1 MOL     -0.061266
     30 H10        -2.6460    2.7110   -1.3240 hc        1 MOL      0.157108
     31 H11        -3.6590    2.9800    0.0350 hc        1 MOL      0.157108
     32 H12        -1.3430    4.0040    0.4930 hc        1 MOL     -0.032881
     33 H13        -2.5260    5.3220    0.3420 hc        1 MOL     -0.032881
     34 H14        -1.7660    5.5990   -1.8240 hc        1 MOL      0.008609
     35 H15        -0.4900    4.2930   -1.5870 hc        1 MOL      0.008609
     36 H16         0.8220    5.9270   -0.6170 hx        1 MOL      0.048358
     37 H17        -0.5300    6.2700    0.5150 hx        1 MOL      0.048358
     38 H18         0.2020    8.2060   -0.7710 hn        1 MOL      0.308462
     39 H19        -0.0870    7.4420   -2.2310 hn        1 MOL      0.308462
     40 H20        -1.2750    7.7580   -1.2450 hn        1 MOL      0.308462
     41 N4         -5.3770    2.0600   -2.5640 n         1 MOL     -0.087981
     42 C13        -5.5360    1.1360   -1.4290 c3        1 MOL     -0.611221
     43 C14        -6.9300    0.4390   -1.3660 c         1 MOL      0.678147
     44 O6         -7.4640   -0.0000   -2.3620 o         1 MOL     -0.515056
     45 C15        -4.4060    0.0670   -1.3650 c3        1 MOL      0.101676
     46 C16        -4.4350   -0.7350   -0.0840 c         1 MOL      0.400021
     47 O7         -4.3630   -0.0550    0.9830 o         1 MOL     -0.573251
     48 O8         -4.4640   -1.9660   -0.1640 o         1 MOL     -0.573251
     49 H21        -5.8130    1.7230   -3.4170 hn        1 MOL      0.261637
     50 H22        -5.4100    1.7870   -0.5570 h1        1 MOL      0.208018
     51 H23        -3.4950    0.6450   -1.4690 hc        1 MOL      0.004881
     52 H24        -4.5190   -0.5840   -2.2420 hc        1 MOL      0.004881
     53 N5         -7.4130    0.3080   -0.1480 n         1 MOL     -0.219438
     54 C17        -8.6270   -0.4760    0.0060 c3        1 MOL     -0.416723
     55 C18        -8.4190   -1.9920    0.3890 c         1 MOL      0.573015
     56 O9         -9.4310   -2.7320    0.3820 o         1 MOL     -0.543169
     57 H25        -6.8730    0.6370    0.6420 hn        1 MOL      0.273871
     58 H26        -9.2030   -0.4250   -0.9170 h1        1 MOL      0.184126
     59 H27        -9.2010   -0.1780    0.8920 h1        1 MOL      0.184126
     60 N6         -7.1930   -2.3790    0.7000 n         1 MOL     -0.293983
     61 C19        -6.7570   -3.6920    1.1760 c3        1 MOL      0.064608
     62 C20        -7.1760   -4.0220    2.6280 c         1 MOL      0.507906
     63 O10        -7.8770   -5.0060    2.8430 o         1 MOL     -0.547193
     64 C21        -7.0030   -4.7260    0.1490 c3        1 MOL     -0.083043
     65 C22        -6.5620   -4.4150   -1.2280 c         1 MOL      0.671633
     66 O11        -7.2770   -3.9480   -2.1750 o         1 MOL     -0.701700
     67 O12        -5.3960   -4.7930   -1.4470 o         1 MOL     -0.701700
     68 H28        -6.4580   -1.6850    0.7160 hn        1 MOL      0.260295
     69 H29        -5.6710   -3.6410    1.2430 h1        1 MOL      0.098681
     70 H30        -8.0800   -4.8360    0.0640 hc        1 MOL      0.016863
     71 H31        -6.5090   -5.6470    0.4790 hc        1 MOL      0.016863
     72 N7         -6.7310   -3.2450    3.5880 n         1 MOL     -0.475270
     73 C23        -5.8020   -2.1470    3.4970 c3        1 MOL      0.066201
     74 C24        -4.3390   -2.6190    3.5730 c         1 MOL      0.410644
     75 O13        -3.8670   -2.9710    4.6440 o         1 MOL     -0.563404
     76 H32        -7.0650   -3.4520    4.5210 hn        1 MOL      0.316310
     77 H33        -6.0140   -1.4020    4.2640 h1        1 MOL      0.039891
     78 H34        -5.8830   -1.6570    2.5250 h1        1 MOL      0.039891
     79 N8         -3.6490   -2.7840    2.4440 n         1 MOL     -0.014173
     80 C25        -2.3200   -3.3590    2.3830 c3        1 MOL     -0.193150
     81 C26        -1.4250   -2.5600    1.4200 c         1 MOL      0.506662
     82 O14        -1.7470   -2.3650    0.2400 o         1 MOL     -0.419146
     83 C27        -2.4860   -4.7920    1.9560 c3        1 MOL      0.392726
     84 C28        -1.2030   -5.5270    1.9060 c3        1 MOL     -0.641362
     85 O15        -3.1380   -4.8930    0.6920 oh        1 MOL     -0.764432
     86 H35        -3.9780   -2.3990    1.5690 hn        1 MOL     -0.004554
     87 H36        -1.7930   -3.3200    3.3400 h1        1 MOL      0.089910
     88 H37        -3.1380   -5.2750    2.6800 h1        1 MOL      0.070147
     89 H38        -3.4740   -5.7690    0.5240 ho        1 MOL      0.418782
     90 H39        -1.3560   -6.6000    1.7290 hc        1 MOL      0.167327
     91 H40        -0.5050   -5.1630    1.1580 hc        1 MOL      0.167327
     92 H41        -0.6500   -5.3380    2.8210 hc        1 MOL      0.167327
     93 N9         -0.3100   -2.0300    1.9430 n         1 MOL     -0.408444
     94 C29         0.7550   -1.3680    1.1200 c3        1 MOL     -0.076383
     95 C30         1.7240   -2.4290    0.5330 c         1 MOL      0.702294
     96 O16         1.2690   -3.4870    0.2220 o         1 MOL     -0.613651
     97 C31         0.2390   -0.2070    0.2130 c3        1 MOL      0.429899
     98 C32        -0.8360    0.6720    0.9700 c3        1 MOL      0.086082
     99 C33         1.3880    0.6060   -0.3630 c3        1 MOL     -0.575979
    100 C34        -0.4070    1.2790    2.3690 c3        1 MOL     -0.388882
    101 H42        -0.0310   -2.1660    2.8970 hn        1 MOL      0.311740
    102 H43         1.4770   -0.8650    1.7630 h1        1 MOL      0.025789
    103 H44        -0.3000   -0.6860   -0.6000 hc        1 MOL     -0.127687
    104 H45        -1.7030    0.0150    1.0270 hc        1 MOL      0.024822
    105 H46        -1.0430    1.5390    0.3390 hc        1 MOL      0.024822
    106 H47         2.1930    0.8810    0.3250 hc        1 MOL      0.136813
    107 H48         1.8420    0.0860   -1.2170 hc        1 MOL      0.136813
    108 H49         0.9840    1.5290   -0.7740 hc        1 MOL      0.136813
    109 H50        -1.3690    1.6300    2.7450 hc        1 MOL      0.096899
    110 H51        -0.0610    0.5140    3.0740 hc        1 MOL      0.096899
    111 H52         0.4720    1.9060    2.2850 hc        1 MOL      0.096899
    112 N10         2.9650   -2.0250    0.2350 n         1 MOL     -0.536524
    113 C35         4.0470   -2.9440   -0.2900 c3        1 MOL      0.037902
    114 C36         5.3890   -2.6490    0.3960 c         1 MOL      0.529617
    115 O17         5.5980   -1.6360    1.0680 o         1 MOL     -0.471928
    116 C37         4.2990   -2.8070   -1.7740 c3        1 MOL      0.565385
    117 C38         4.5310   -1.4010   -2.3800 c3        1 MOL     -0.505688
    118 O18         3.2140   -3.3970   -2.4370 oh        1 MOL     -0.648012
    119 H53         3.2680   -1.0790    0.4000 hn        1 MOL      0.264164
    120 H54         3.7860   -3.9790   -0.0770 h1        1 MOL      0.064987
    121 H55         5.1510   -3.4500   -2.0150 h1        1 MOL     -0.058701
    122 H56         3.5410   -4.2810   -2.6180 ho        1 MOL      0.368296
    123 H57         5.2630   -0.7780   -1.8620 hc        1 MOL      0.142564
    124 H58         4.8970   -1.6330   -3.3680 hc        1 MOL      0.142564
    125 H59         3.5820   -0.8890   -2.5550 hc        1 MOL      0.142564
    126 N11         6.3370   -3.6510    0.2270 n         1 MOL     -0.529639
    127 C39         7.7530   -3.4940    0.6280 c3        1 MOL      0.042933
    128 C40         8.3260   -2.2120    0.1720 c         1 MOL      0.332262
    129 O19         8.1880   -1.7830   -0.9900 o         1 MOL     -0.489427
    130 C41         8.4650   -4.7500    0.0890 c3        1 MOL      0.440250
    131 C42         9.9700   -4.8120    0.4720 c3        1 MOL     -0.249328
    132 O20         7.9620   -5.8910    0.6530 oh        1 MOL     -0.643635
    133 H60         6.1530   -4.4340   -0.3870 hn        1 MOL      0.257155
    134 H61         7.8310   -3.5640    1.7120 h1        1 MOL      0.103333
    135 H62         8.4470   -4.7890   -1.0030 h1        1 MOL     -0.012874
    136 H63         8.2580   -6.6550    0.1640 ho        1 MOL      0.411865
    137 H64        10.3540   -5.8150    0.3150 hc        1 MOL      0.049511
    138 H65        10.5960   -4.1990   -0.1740 hc        1 MOL      0.049511
    139 H66        10.1110   -4.3910    1.4680 hc        1 MOL      0.049511
    140 N12         9.2050   -1.7070    1.0050 n         1 MOL     -0.289971
    141 C43         9.9450   -0.4820    0.8640 c3        1 MOL      0.098604
    142 C44         9.0680    0.7820    0.6190 c         1 MOL      0.381777
    143 O21         8.1840    0.7660   -0.2230 o         1 MOL     -0.402178
    144 C45        11.0130   -0.5900   -0.2050 c3        1 MOL     -0.335029
    145 C46        11.9410    0.6680   -0.3500 c3        1 MOL      0.037578
    146 C47        13.0670    0.5610   -1.4270 c3        1 MOL     -0.187167
    147 C48        13.9360    1.8270   -1.3680 c3        1 MOL      0.182848
    148 N13        13.3740    2.9880   -2.1210 n4        1 MOL     -0.634931
    149 H67         9.3040   -2.2160    1.8650 hn        1 MOL      0.231752
    150 H68        10.5390   -0.3520    1.7640 h1        1 MOL      0.033618
    151 H69        10.5260   -0.7980   -1.1680 hc        1 MOL      0.128012
    152 H70        11.6120   -1.4600    0.0850 hc        1 MOL      0.128012
    153 H71        12.3450    1.0240    0.5980 hc        1 MOL      0.031161
    154 H72        11.3540    1.4570   -0.8110 hc        1 MOL      0.031161
    155 H73        12.6050    0.5730   -2.4090 hc        1 MOL      0.078244
    156 H74        13.6320   -0.3290   -1.1850 hc        1 MOL      0.078244
    157 H75        14.8940    1.4660   -1.7340 hx        1 MOL      0.041928
    158 H76        14.1070    1.9890   -0.3060 hx        1 MOL      0.041928
    159 H77        12.5250    3.2710   -1.6520 hn        1 MOL      0.384548
    160 H78        13.9210    3.8290   -2.2300 hn        1 MOL      0.384548
    161 H79        13.1450    2.6650   -3.0460 hn        1 MOL      0.384548
    162 N14         9.2750    1.8150    1.3660 n         1 MOL     -0.313950
    163 C49         8.6600    3.0640    0.9740 c3        1 MOL      0.508909
    164 C50         7.1200    3.1440    1.2100 c         1 MOL      0.145143
    165 O22         6.3610    3.6110    0.3860 o         1 MOL     -0.478209
    166 C51         9.4440    4.2280    1.5740 c3        1 MOL     -0.188418
    167 C52        10.8930    4.4160    1.1140 c3        1 MOL      0.148914
    168 C53        10.9790    4.7700   -0.3760 c         1 MOL      0.612206
    169 O23        10.8710    3.8690   -1.2530 o         1 MOL     -0.654012
    170 O24        11.1560    5.9640   -0.7010 o         1 MOL     -0.654012
    171 H80         9.9510    1.7470    2.1140 hn        1 MOL      0.190989
    172 H81         8.8430    3.0890   -0.1040 h1        1 MOL     -0.055128
    173 H82         9.3550    4.2550    2.6620 hc        1 MOL      0.044864
    174 H83         8.9420    5.1290    1.2400 hc        1 MOL      0.044864
    175 H84        11.5190    3.5480    1.3180 hc        1 MOL     -0.079418
    176 H85        11.3920    5.2050    1.6830 hc        1 MOL     -0.079418
    177 N15         6.6180    2.6830    2.3610 n         1 MOL     -0.195120
    178 C54         7.1890    2.1720    3.5840 c3        1 MOL     -0.006004
    179 H86         7.7690    1.2750    3.3660 h1        1 MOL      0.019644
    180 H87         7.8410    2.9270    4.0240 h1        1 MOL      0.019644
    181 H88         6.3910    1.9270    4.2840 h1        1 MOL      0.019644
    182 H89         5.6260    2.8440    2.4920 hn        1 MOL      0.248245
    183 Ca1        -3.0470   -3.4970   -1.7160 Ca        1 MOL      1.724786
    184 O25        -0.5870   -4.4710   -1.5960 oh        1 MOL     -0.851752
    185 H90        -0.1700   -5.2930   -1.8350 ho        1 MOL      0.422262
    186 H91         0.0720   -3.9990   -1.1020 ho        1 MOL      0.422262
    187 O26        -5.1230   -2.7250   -3.4290 oh        1 MOL     -0.851752
    188 H92        -5.8730   -3.0500   -2.9110 ho        1 MOL      0.422262
    189 H93        -5.4190   -2.8090   -4.3370 ho        1 MOL      0.422262
    190 O27        -1.9960   -1.5250   -3.2760 oh        1 MOL     -0.851752
    191 H94        -1.6080   -0.6880   -3.0520 ho        1 MOL      0.422262
    192 H95        -1.7580   -1.6590   -4.2000 ho        1 MOL      0.422262
    193 O28        -2.6420   -4.2860   -4.2680 oh        1 MOL     -0.851752
    194 H96        -1.8640   -4.0910   -4.7960 ho        1 MOL      0.422262
    195 H97        -3.1280   -4.9350   -4.7750 ho        1 MOL      0.422262
    196 O29        -2.8570   -6.3040   -1.9760 oh        1 MOL     -0.851752
    197 H98        -2.9100   -6.9840   -2.6410 ho        1 MOL      0.422262
    198 H99        -3.1700   -6.7410   -1.1790 ho        1 MOL      0.422262
@<TRIPOS>BOND
     1    1    2 1   
     2    1    4 1   
     3    1    5 1   
     4    1    6 1   
     5    2    3 2   
     6    2    7 1   
     7    7    8 1   
     8    7   15 1   
     9    8    9 1   
    10    8   11 1   
    11    8   16 1   
    12    9   10 2   
    13    9   19 1   
    14   11   12 1   
    15   11   17 1   
    16   11   18 1   
    17   12   13 1   
    18   12   14 1   
    19   19   20 1   
    20   19   28 1   
    21   20   21 1   
    22   20   23 1   
    23   20   29 1   
    24   21   22 2   
    25   21   41 1   
    26   23   24 1   
    27   23   30 1   
    28   23   31 1   
    29   24   25 1   
    30   24   32 1   
    31   24   33 1   
    32   25   26 1   
    33   25   34 1   
    34   25   35 1   
    35   26   27 1   
    36   26   36 1   
    37   26   37 1   
    38   27   38 1   
    39   27   39 1   
    40   27   40 1   
    41   41   42 1   
    42   41   49 1   
    43   42   43 1   
    44   42   45 1   
    45   42   50 1   
    46   43   44 2   
    47   43   53 1   
    48   45   46 1   
    49   45   51 1   
    50   45   52 1   
    51   46   47 1   
    52   46   48 1   
    53   53   54 1   
    54   53   57 1   
    55   54   55 1   
    56   54   58 1   
    57   54   59 1   
    58   55   56 2   
    59   55   60 1   
    60   60   61 1   
    61   60   68 1   
    62   61   62 1   
    63   61   64 1   
    64   61   69 1   
    65   62   63 2   
    66   62   72 1   
    67   64   65 1   
    68   64   70 1   
    69   64   71 1   
    70   65   66 1   
    71   65   67 1   
    72   72   73 1   
    73   72   76 1   
    74   73   74 1   
    75   73   77 1   
    76   73   78 1   
    77   74   75 2   
    78   74   79 1   
    79   79   80 1   
    80   79   86 1   
    81   80   81 1   
    82   80   83 1   
    83   80   87 1   
    84   81   82 2   
    85   81   93 1   
    86   83   84 1   
    87   83   85 1   
    88   83   88 1   
    89   84   90 1   
    90   84   91 1   
    91   84   92 1   
    92   85   89 1   
    93   93   94 1   
    94   93  101 1   
    95   94   95 1   
    96   94   97 1   
    97   94  102 1   
    98   95   96 2   
    99   95  112 1   
   100   97   98 1   
   101   97   99 1   
   102   97  103 1   
   103   98  100 1   
   104   98  104 1   
   105   98  105 1   
   106   99  106 1   
   107   99  107 1   
   108   99  108 1   
   109  100  109 1   
   110  100  110 1   
   111  100  111 1   
   112  112  113 1   
   113  112  119 1   
   114  113  114 1   
   115  113  116 1   
   116  113  120 1   
   117  114  115 2   
   118  114  126 1   
   119  116  117 1   
   120  116  118 1   
   121  116  121 1   
   122  117  123 1   
   123  117  124 1   
   124  117  125 1   
   125  118  122 1   
   126  126  127 1   
   127  126  133 1   
   128  127  128 1   
   129  127  130 1   
   130  127  134 1   
   131  128  129 2   
   132  128  140 1   
   133  130  131 1   
   134  130  132 1   
   135  130  135 1   
   136  131  137 1   
   137  131  138 1   
   138  131  139 1   
   139  132  136 1   
   140  140  141 1   
   141  140  149 1   
   142  141  142 1   
   143  141  144 1   
   144  141  150 1   
   145  142  143 2   
   146  142  162 1   
   147  144  145 1   
   148  144  151 1   
   149  144  152 1   
   150  145  146 1   
   151  145  153 1   
   152  145  154 1   
   153  146  147 1   
   154  146  155 1   
   155  146  156 1   
   156  147  148 1   
   157  147  157 1   
   158  147  158 1   
   159  148  159 1   
   160  148  160 1   
   161  148  161 1   
   162  162  163 1   
   163  162  171 1   
   164  163  164 1   
   165  163  166 1   
   166  163  172 1   
   167  164  165 2   
   168  164  177 1   
   169  166  167 1   
   170  166  173 1   
   171  166  174 1   
   172  167  168 1   
   173  167  175 1   
   174  167  176 1   
   175  168  169 1   
   176  168  170 1   
   177  177  178 1   
   178  177  182 1   
   179  178  179 1   
   180  178  180 1   
   181  178  181 1   
   182  184  185 1   
   183  184  186 1   
   184  187  188 1   
   185  187  189 1   
   186  190  191 1   
   187  190  192 1   
   188  193  194 1   
   189  193  195 1   
   190  196  197 1   
   191  196  198 1   
@<TRIPOS>SUBSTRUCTURE
     1 MOL         1 TEMP              0 ****  ****    0 ROOT
