@<TRIPOS>MOLECULE
MOL
  192   187     1     0     0
SMALL
resp


@<TRIPOS>ATOM
      1 C1         12.5390    5.4350   -2.3450 c3        1 MOL     -0.421602
      2 C2         12.3350    4.2580   -1.4340 c         1 MOL      0.654098
      3 O1         13.0850    3.2510   -1.4130 o         1 MOL     -0.596235
      4 H1         12.8130    6.3080   -1.7540 hc        1 MOL      0.114586
      5 H2         13.3360    5.2120   -3.0540 hc        1 MOL      0.114586
      6 H3         11.6160    5.6380   -2.8880 hc        1 MOL      0.114586
      7 N1         11.2570    4.3390   -0.6580 n         1 MOL     -0.257862
      8 C3         10.9350    3.3730    0.3920 c3        1 MOL     -0.246182
      9 C4          9.6450    2.6150   -0.0020 c         1 MOL      0.513603
     10 O2          8.7590    3.1600   -0.5920 o         1 MOL     -0.662117
     11 C5         10.7140    3.9980    1.7810 c3        1 MOL      0.024159
     12 C6          9.8480    5.2530    1.7370 c         1 MOL      0.601584
     13 O3         10.4230    6.3510    1.5650 o         1 MOL     -0.672715
     14 O4          8.5640    5.1490    1.7310 o         1 MOL     -0.672715
     15 H4         10.7520    5.2150   -0.6900 hn        1 MOL      0.215443
     16 H5         11.7730    2.6810    0.3670 h1        1 MOL      0.123578
     17 H6         11.7260    4.1970    2.1580 hc        1 MOL      0.033385
     18 H7         10.3430    3.2550    2.4940 hc        1 MOL      0.033385
     19 N2          9.6050    1.2890    0.3050 n         1 MOL     -0.251244
     20 C7          8.6320    0.2850   -0.2050 c3        1 MOL      0.012483
     21 C8          7.4970   -0.1040    0.7720 c         1 MOL      0.455766
     22 O5          7.8020   -0.8550    1.7190 o         1 MOL     -0.518412
     23 C9          9.5440   -0.8630   -0.5120 c3        1 MOL     -0.311198
     24 C10         8.9580   -1.9890   -1.3530 c3        1 MOL      0.057710
     25 C11         9.8560   -3.1890   -1.3850 c3        1 MOL      0.110636
     26 C12         9.1450   -4.3520   -2.1690 c3        1 MOL      0.194851
     27 N3          9.9490   -5.6220   -2.0460 n4        1 MOL     -0.550532
     28 H8         10.3010    0.9640    0.9640 hn        1 MOL      0.252353
     29 H9          8.2740    0.7130   -1.1430 h1        1 MOL      0.129298
     30 H10         9.8320   -1.2840    0.4560 hc        1 MOL      0.096459
     31 H11        10.4590   -0.5800   -1.0140 hc        1 MOL      0.096459
     32 H12         8.6680   -1.7160   -2.3760 hc        1 MOL      0.018245
     33 H13         8.0370   -2.2910   -0.8580 hc        1 MOL      0.018245
     34 H14        10.1840   -3.5390   -0.4010 hc        1 MOL     -0.015305
     35 H15        10.6700   -2.9720   -2.0720 hc        1 MOL     -0.015305
     36 H16         9.1260   -3.9590   -3.1860 hx        1 MOL      0.024225
     37 H17         8.0750   -4.3770   -1.9500 hx        1 MOL      0.024225
     38 H18         9.4390   -6.4250   -2.4020 hn        1 MOL      0.345751
     39 H19        10.8120   -5.4820   -2.5400 hn        1 MOL      0.345751
     40 H20        10.1310   -5.8760   -1.0840 hn        1 MOL      0.345751
     41 N4          6.2490    0.2520    0.5710 n         1 MOL     -0.380310
     42 C13         5.1000    0.0340    1.5060 c3        1 MOL      0.274604
     43 C14         3.7180    0.1170    0.8080 c         1 MOL      0.368761
     44 O6          3.7050    0.7030   -0.3000 o         1 MOL     -0.506237
     45 C15         5.0770    1.0970    2.6470 c3        1 MOL     -0.479370
     46 C16         5.3870    2.4460    2.0170 c         1 MOL      1.003175
     47 O7          4.5730    3.1160    1.3820 o         1 MOL     -0.803657
     48 O8          6.4890    2.9600    2.1010 o         1 MOL     -0.803657
     49 H21         6.0880    0.7340   -0.3120 hn        1 MOL      0.200104
     50 H22         5.2060   -1.0070    1.8220 h1        1 MOL      0.051127
     51 H23         5.7960    1.0180    3.4580 hc        1 MOL      0.123393
     52 H24         4.0790    1.1450    3.0940 hc        1 MOL      0.123393
     53 N5          2.6870   -0.5370    1.2270 n         1 MOL     -0.321080
     54 C17         2.5850   -1.4500    2.3950 c3        1 MOL     -0.076047
     55 C18         2.6950   -2.9750    2.0540 c         1 MOL      0.563461
     56 O9          3.0120   -3.3380    0.9430 o         1 MOL     -0.548107
     57 H25         2.0090   -0.7700    0.5020 hn        1 MOL      0.243468
     58 H26         1.5810   -1.2500    2.7780 h1        1 MOL      0.081789
     59 H27         3.2490   -1.1610    3.2070 h1        1 MOL      0.081789
     60 N6          2.5750   -3.8430    3.0830 n         1 MOL     -0.230753
     61 C19         2.8700   -5.2800    2.9540 c3        1 MOL     -0.303129
     62 C20         1.7310   -6.0980    2.2140 c         1 MOL      0.400497
     63 O10         1.9810   -7.3210    1.9460 o         1 MOL     -0.496230
     64 C21         3.2820   -6.0220    4.2810 c3        1 MOL     -0.052309
     65 C22         2.4300   -5.5080    5.4310 c         1 MOL      0.662517
     66 O11         2.8500   -4.4560    5.9960 o         1 MOL     -0.663278
     67 O12         1.5180   -6.3270    5.8400 o         1 MOL     -0.663278
     68 H28         2.2860   -3.3980    3.9350 hn        1 MOL      0.173249
     69 H29         3.7240   -5.3630    2.2820 h1        1 MOL      0.152899
     70 H30         4.3000   -5.8210    4.6080 hc        1 MOL      0.048182
     71 H31         3.1620   -7.1040    4.1960 hc        1 MOL      0.048182
     72 N7          0.6470   -5.4200    1.8750 n         1 MOL     -0.133792
     73 C23        -0.3640   -5.9940    0.9020 c3        1 MOL     -0.076668
     74 C24        -0.1650   -5.5670   -0.5280 c         1 MOL      0.644160
     75 O13        -0.5340   -6.2420   -1.4480 o         1 MOL     -0.585805
     76 H32         0.5380   -4.4990    2.2830 hn        1 MOL      0.196458
     77 H33        -1.3110   -5.6220    1.2840 h1        1 MOL      0.067458
     78 H34        -0.2690   -7.0740    0.9410 h1        1 MOL      0.067458
     79 N8          0.4780   -4.4830   -0.8010 n         1 MOL     -0.419934
     80 C25         0.6400   -3.7320   -2.1040 c3        1 MOL      0.021139
     81 C26         0.2700   -2.3410   -1.8840 c         1 MOL      0.442989
     82 O14         0.7800   -1.7950   -0.8810 o         1 MOL     -0.416506
     83 C27         2.0660   -3.9310   -2.6370 c3        1 MOL      0.370430
     84 C28         2.3440   -5.3990   -3.0080 c3        1 MOL     -0.517260
     85 O15         2.2930   -3.1630   -3.8210 oh        1 MOL     -0.642384
     86 H35         0.7940   -3.9550   -0.0000 hn        1 MOL      0.185655
     87 H36        -0.1360   -4.1420   -2.7430 h1        1 MOL      0.080878
     88 H37         2.7760   -3.5780   -1.8870 h1        1 MOL      0.033021
     89 H38         3.1810   -3.2490   -4.1680 ho        1 MOL      0.400258
     90 H39         3.3420   -5.4570   -3.4410 hc        1 MOL      0.142247
     91 H40         2.4390   -6.0330   -2.1300 hc        1 MOL      0.142247
     92 H41         1.5040   -5.7830   -3.5940 hc        1 MOL      0.142247
     93 N9         -0.3680   -1.6100   -2.8740 n         1 MOL     -0.364755
     94 C29        -0.8290   -0.2720   -2.6900 c3        1 MOL     -0.042502
     95 C30        -2.2420   -0.1570   -2.0260 c         1 MOL      0.545569
     96 O16        -2.6950    0.9100   -1.5760 o         1 MOL     -0.523733
     97 C31        -0.8020    0.4580   -4.0830 c3        1 MOL      0.180379
     98 C32         0.3340    0.1790   -5.0940 c3        1 MOL      0.008054
     99 C33        -0.8500    1.9600   -3.8640 c3        1 MOL     -0.302128
    100 C34         1.7690    0.4970   -4.5940 c3        1 MOL     -0.106917
    101 H42        -0.3300   -2.0010   -3.7970 hn        1 MOL      0.262791
    102 H43        -0.1240    0.1940   -2.0050 h1        1 MOL      0.080141
    103 H44        -1.6990    0.1090   -4.5960 hc        1 MOL     -0.010793
    104 H45         0.1360    0.7020   -6.0390 hc        1 MOL      0.000204
    105 H46         0.2790   -0.8510   -5.4330 hc        1 MOL      0.000204
    106 H47        -0.7250    2.5530   -4.7700 hc        1 MOL      0.077680
    107 H48        -1.8490    2.1910   -3.4880 hc        1 MOL      0.077680
    108 H49        -0.1540    2.2920   -3.1000 hc        1 MOL      0.077680
    109 H50         1.7990    1.5020   -4.1710 hc        1 MOL      0.022331
    110 H51         2.0860   -0.2820   -3.9030 hc        1 MOL      0.022331
    111 H52         2.5760    0.5050   -5.3320 hc        1 MOL      0.022331
    112 N10        -2.9370   -1.2780   -1.8880 n         1 MOL     -0.332888
    113 C35        -4.1120   -1.4230   -1.0420 c3        1 MOL     -0.134543
    114 C36        -5.3740   -1.9180   -1.7370 c         1 MOL      0.628796
    115 O17        -5.3780   -2.8670   -2.5200 o         1 MOL     -0.538846
    116 C37        -3.9250   -2.3070    0.1140 c3        1 MOL      0.436995
    117 C38        -3.3310   -3.6570   -0.1520 c3        1 MOL     -0.438854
    118 O18        -2.9370   -1.7400    1.0090 oh        1 MOL     -0.588382
    119 H53        -2.7060   -2.0990   -2.4360 hn        1 MOL      0.198848
    120 H54        -4.3380   -0.4150   -0.6840 h1        1 MOL      0.103264
    121 H55        -4.8750   -2.3810    0.6400 h1        1 MOL     -0.026379
    122 H56        -3.4320   -1.5090    1.8000 ho        1 MOL      0.369146
    123 H57        -3.9540   -4.2310   -0.8350 hc        1 MOL      0.113617
    124 H58        -2.4060   -3.5030   -0.7090 hc        1 MOL      0.113617
    125 H59        -3.0400   -4.1960    0.7550 hc        1 MOL      0.113617
    126 N11        -6.5870   -1.4610   -1.4250 n         1 MOL     -0.497528
    127 C39        -7.9260   -2.0040   -1.7380 c3        1 MOL      0.102875
    128 C40        -8.9600   -0.9070   -1.9840 c         1 MOL      0.483209
    129 O19        -9.2760   -0.5800   -3.1250 o         1 MOL     -0.527603
    130 C41        -8.3580   -3.1100   -0.7910 c3        1 MOL      0.283367
    131 C42        -9.6600   -3.8280   -0.9570 c3        1 MOL     -0.346977
    132 O20        -8.2340   -2.6900    0.5260 oh        1 MOL     -0.613881
    133 H60        -6.5740   -0.8130   -0.6410 hn        1 MOL      0.238318
    134 H61        -7.8810   -2.4310   -2.7410 h1        1 MOL      0.072405
    135 H62        -7.6180   -3.9020   -0.9030 h1        1 MOL      0.030620
    136 H63        -8.4670   -3.4610    1.0370 ho        1 MOL      0.403312
    137 H64       -10.1370   -3.6630   -1.9310 hc        1 MOL      0.088517
    138 H65        -9.4940   -4.8960   -0.9050 hc        1 MOL      0.088517
    139 H66       -10.2620   -3.5440   -0.0980 hc        1 MOL      0.088517
    140 N12        -9.3660   -0.2350   -0.9070 n         1 MOL     -0.258332
    141 C43       -10.3160    0.8540   -0.8930 c3        1 MOL      0.027505
    142 C44        -9.9460    1.9170    0.0710 c         1 MOL      0.411642
    143 O21        -9.1960    1.6320    1.0350 o         1 MOL     -0.499689
    144 C45       -11.7380    0.2700   -0.7880 c3        1 MOL     -0.403557
    145 C46       -12.0510   -0.3020    0.6600 c3        1 MOL     -0.028500
    146 C47       -13.1460   -1.3710    0.6660 c3        1 MOL     -0.038300
    147 C48       -13.6830   -1.6670    2.0450 c3        1 MOL      0.144965
    148 N13       -14.7860   -2.6690    2.1190 n4        1 MOL     -0.358289
    149 H67        -9.0620   -0.5430    0.0010 hn        1 MOL      0.227453
    150 H68       -10.2120    1.4070   -1.8350 h1        1 MOL      0.096810
    151 H69       -11.7600   -0.5200   -1.5350 hc        1 MOL      0.151299
    152 H70       -12.5300    1.0100   -0.9120 hc        1 MOL      0.151299
    153 H71       -12.4200    0.5960    1.1640 hc        1 MOL      0.063159
    154 H72       -11.1910   -0.7630    1.1330 hc        1 MOL      0.063159
    155 H73       -12.7420   -2.2680    0.1960 hc        1 MOL      0.022477
    156 H74       -14.0320   -1.0180    0.1470 hc        1 MOL      0.022477
    157 H75       -14.0830   -0.7350    2.4390 hx        1 MOL      0.041768
    158 H76       -12.8350   -1.9050    2.6910 hx        1 MOL      0.041768
    159 H77       -14.3170   -3.5620    2.0720 hn        1 MOL      0.270906
    160 H78       -15.3200   -2.5220    2.9640 hn        1 MOL      0.270906
    161 H79       -15.4440   -2.4800    1.3750 hn        1 MOL      0.270906
    162 N14       -10.5190    3.0950   -0.0460 n         1 MOL     -0.276158
    163 C49       -10.3260    4.1540    0.8720 c3        1 MOL      0.073323
    164 C50        -8.8540    4.5570    1.2900 c         1 MOL      0.378575
    165 O22        -8.7280    4.6620    2.4880 o         1 MOL     -0.531136
    166 C51       -11.1980    5.4220    0.5170 c3        1 MOL     -0.103130
    167 C52       -11.3740    6.3910    1.6150 c3        1 MOL     -0.147658
    168 C53       -12.3120    7.5370    1.2420 c         1 MOL      0.637991
    169 O23       -13.5940    7.4090    1.3480 o         1 MOL     -0.634031
    170 O24       -11.7620    8.5000    0.6760 o         1 MOL     -0.634031
    171 H80       -10.9970    3.3250   -0.9040 hn        1 MOL      0.206230
    172 H81       -10.7910    3.7700    1.7850 h1        1 MOL      0.078581
    173 H82       -12.1630    5.0840    0.1470 hc        1 MOL      0.063745
    174 H83       -10.6940    5.9630   -0.2920 hc        1 MOL      0.063745
    175 H84       -10.3840    6.7740    1.8720 hc        1 MOL      0.041275
    176 H85       -11.7140    5.8910    2.5140 hc        1 MOL      0.041275
    177 N15        -7.7420    4.7550    0.5820 n         1 MOL     -0.264441
    178 C54        -7.5520    4.8220   -0.8710 c3        1 MOL     -0.048268
    179 H86        -8.3500    5.4170   -1.3130 h1        1 MOL      0.050760
    180 H87        -6.5900    5.2840   -1.0910 h1        1 MOL      0.050760
    181 H88        -7.5770    3.8150   -1.2870 h1        1 MOL      0.050760
    182 H89        -6.8860    4.8630    1.0920 hn        1 MOL      0.276192
    183 Ca1         6.5170    4.6110    0.2640 Ca        1 MOL      1.759960
    184 O25         4.2250    5.5770   -0.5200 oh        1 MOL     -0.902398
    185 H90         3.5850    4.8720   -0.4660 ho        1 MOL      0.440933
    186 H91         3.7070    6.3760   -0.6400 ho        1 MOL      0.440933
    187 O26         5.5270    6.0760    2.2550 oh        1 MOL     -0.902398
    188 H92         4.7140    5.9190    2.7260 ho        1 MOL      0.440933
    189 H93         5.6070    7.0310    2.2220 ho        1 MOL      0.440933
    190 O27         5.7690    2.5650   -1.4690 oh        1 MOL     -0.902398
    191 H94         4.8780    2.3870   -1.7830 ho        1 MOL      0.440933
    192 H95         6.2800    2.6960   -2.2740 ho        1 MOL      0.440933
@<TRIPOS>BOND
     1    1    2 1   
     2    1    4 1   
     3    1    5 1   
     4    1    6 1   
     5    2    3 2   
     6    2    7 1   
     7    7    8 1   
     8    7   15 1   
     9    8    9 1   
    10    8   11 1   
    11    8   16 1   
    12    9   10 2   
    13    9   19 1   
    14   11   12 1   
    15   11   17 1   
    16   11   18 1   
    17   12   13 1   
    18   12   14 1   
    19   19   20 1   
    20   19   28 1   
    21   20   21 1   
    22   20   23 1   
    23   20   29 1   
    24   21   22 2   
    25   21   41 1   
    26   23   24 1   
    27   23   30 1   
    28   23   31 1   
    29   24   25 1   
    30   24   32 1   
    31   24   33 1   
    32   25   26 1   
    33   25   34 1   
    34   25   35 1   
    35   26   27 1   
    36   26   36 1   
    37   26   37 1   
    38   27   38 1   
    39   27   39 1   
    40   27   40 1   
    41   41   42 1   
    42   41   49 1   
    43   42   43 1   
    44   42   45 1   
    45   42   50 1   
    46   43   44 2   
    47   43   53 1   
    48   45   46 1   
    49   45   51 1   
    50   45   52 1   
    51   46   47 1   
    52   46   48 1   
    53   53   54 1   
    54   53   57 1   
    55   54   55 1   
    56   54   58 1   
    57   54   59 1   
    58   55   56 2   
    59   55   60 1   
    60   60   61 1   
    61   60   68 1   
    62   61   62 1   
    63   61   64 1   
    64   61   69 1   
    65   62   63 2   
    66   62   72 1   
    67   64   65 1   
    68   64   70 1   
    69   64   71 1   
    70   65   66 1   
    71   65   67 1   
    72   72   73 1   
    73   72   76 1   
    74   73   74 1   
    75   73   77 1   
    76   73   78 1   
    77   74   75 2   
    78   74   79 1   
    79   79   80 1   
    80   79   86 1   
    81   80   81 1   
    82   80   83 1   
    83   80   87 1   
    84   81   82 2   
    85   81   93 1   
    86   83   84 1   
    87   83   85 1   
    88   83   88 1   
    89   84   90 1   
    90   84   91 1   
    91   84   92 1   
    92   85   89 1   
    93   93   94 1   
    94   93  101 1   
    95   94   95 1   
    96   94   97 1   
    97   94  102 1   
    98   95   96 2   
    99   95  112 1   
   100   97   98 1   
   101   97   99 1   
   102   97  103 1   
   103   98  100 1   
   104   98  104 1   
   105   98  105 1   
   106   99  106 1   
   107   99  107 1   
   108   99  108 1   
   109  100  109 1   
   110  100  110 1   
   111  100  111 1   
   112  112  113 1   
   113  112  119 1   
   114  113  114 1   
   115  113  116 1   
   116  113  120 1   
   117  114  115 2   
   118  114  126 1   
   119  116  117 1   
   120  116  118 1   
   121  116  121 1   
   122  117  123 1   
   123  117  124 1   
   124  117  125 1   
   125  118  122 1   
   126  126  127 1   
   127  126  133 1   
   128  127  128 1   
   129  127  130 1   
   130  127  134 1   
   131  128  129 2   
   132  128  140 1   
   133  130  131 1   
   134  130  132 1   
   135  130  135 1   
   136  131  137 1   
   137  131  138 1   
   138  131  139 1   
   139  132  136 1   
   140  140  141 1   
   141  140  149 1   
   142  141  142 1   
   143  141  144 1   
   144  141  150 1   
   145  142  143 2   
   146  142  162 1   
   147  144  145 1   
   148  144  151 1   
   149  144  152 1   
   150  145  146 1   
   151  145  153 1   
   152  145  154 1   
   153  146  147 1   
   154  146  155 1   
   155  146  156 1   
   156  147  148 1   
   157  147  157 1   
   158  147  158 1   
   159  148  159 1   
   160  148  160 1   
   161  148  161 1   
   162  162  163 1   
   163  162  171 1   
   164  163  164 1   
   165  163  166 1   
   166  163  172 1   
   167  164  165 2   
   168  164  177 1   
   169  166  167 1   
   170  166  173 1   
   171  166  174 1   
   172  167  168 1   
   173  167  175 1   
   174  167  176 1   
   175  168  169 1   
   176  168  170 1   
   177  177  178 1   
   178  177  182 1   
   179  178  179 1   
   180  178  180 1   
   181  178  181 1   
   182  184  185 1   
   183  184  186 1   
   184  187  188 1   
   185  187  189 1   
   186  190  191 1   
   187  190  192 1   
@<TRIPOS>SUBSTRUCTURE
     1 MOL         1 TEMP              0 ****  ****    0 ROOT
