@<TRIPOS>MOLECULE
MOL
  195   189     1     0     0
SMALL
resp


@<TRIPOS>ATOM
      1 C1         10.9090    6.0790   -2.3600 c3        1 MOL     -0.518979
      2 C2         10.7360    4.6980   -1.7290 c         1 MOL      0.755545
      3 O1         11.3940    3.6970   -2.0590 o         1 MOL     -0.623890
      4 H1         11.3850    6.7480   -1.6430 hc        1 MOL      0.138861
      5 H2         11.5340    5.9960   -3.2490 hc        1 MOL      0.138861
      6 H3          9.9330    6.4780   -2.6360 hc        1 MOL      0.138861
      7 N1          9.9590    4.6390   -0.6970 n         1 MOL     -0.382716
      8 C3          9.8220    3.4770    0.1730 c3        1 MOL     -0.095185
      9 C4          8.5880    2.6550   -0.3900 c         1 MOL      0.299815
     10 O2          7.6360    3.2000   -0.9060 o         1 MOL     -0.504322
     11 C5          9.4830    3.8800    1.6240 c3        1 MOL      0.336952
     12 C6          8.3510    4.8710    1.8770 c         1 MOL      0.641561
     13 O3          7.8900    5.0690    3.0330 o         1 MOL     -0.704664
     14 O4          7.7850    5.4750    0.9240 o         1 MOL     -0.704664
     15 H4          9.5530    5.4860   -0.3310 hn        1 MOL      0.122350
     16 H5         10.7010    2.8400    0.1630 h1        1 MOL      0.077789
     17 H6         10.4090    4.2320    2.0770 hc        1 MOL     -0.060510
     18 H7          9.1970    2.9920    2.1900 hc        1 MOL     -0.060510
     19 N2          8.5880    1.3410   -0.1120 n         1 MOL     -0.113222
     20 C7          7.7530    0.3360   -0.8690 c3        1 MOL     -0.056399
     21 C8          6.6430   -0.2380    0.0130 c         1 MOL      0.498655
     22 O5          6.2650   -1.3720   -0.1670 o         1 MOL     -0.488608
     23 C9          8.6450   -0.6120   -1.5860 c3        1 MOL     -0.280710
     24 C10         9.4010   -1.5600   -0.6550 c3        1 MOL     -0.037338
     25 C11        10.2850   -2.5940   -1.4200 c3        1 MOL     -0.036056
     26 C12         9.6260   -3.9580   -1.7230 c3        1 MOL     -0.000873
     27 N3         10.4800   -4.9420   -2.4330 n4        1 MOL     -0.081842
     28 H8          9.3360    1.0160    0.4890 hn        1 MOL      0.169281
     29 H9          7.2440    0.9280   -1.6280 h1        1 MOL      0.165021
     30 H10         9.3620   -0.0260   -2.1550 hc        1 MOL      0.101925
     31 H11         8.0410   -1.1630   -2.3080 hc        1 MOL      0.101925
     32 H12         8.7150   -2.0570    0.0310 hc        1 MOL      0.075509
     33 H13         9.9700   -0.9420    0.0390 hc        1 MOL      0.075509
     34 H14        11.0760   -2.8120   -0.6980 hc        1 MOL      0.031021
     35 H15        10.8070   -2.2240   -2.2940 hc        1 MOL      0.031021
     36 H16         8.7410   -3.7980   -2.3300 hx        1 MOL      0.084892
     37 H17         9.3730   -4.4740   -0.7970 hx        1 MOL      0.084892
     38 H18        11.3070   -5.3250   -1.9880 hn        1 MOL      0.206037
     39 H19        10.0110   -5.7580   -2.8030 hn        1 MOL      0.206037
     40 H20        10.9050   -4.4390   -3.1940 hn        1 MOL      0.206037
     41 N4          6.1400    0.5390    1.0460 n         1 MOL     -0.267779
     42 C13         4.9220    0.2770    1.8360 c3        1 MOL     -0.423756
     43 C14         3.6590    0.1720    0.9200 c         1 MOL      0.521047
     44 O6          3.6370    0.6830   -0.1810 o         1 MOL     -0.498088
     45 C15         4.7760    1.3370    2.8600 c3        1 MOL      0.035330
     46 C16         4.8220    2.8320    2.5100 c         1 MOL      0.749225
     47 O7          5.3740    3.2410    1.4790 o         1 MOL     -0.685880
     48 O8          4.2910    3.5340    3.3850 o         1 MOL     -0.685880
     49 H21         6.4870    1.4890    1.0310 hn        1 MOL      0.153955
     50 H22         5.0250   -0.6910    2.3250 h1        1 MOL      0.217077
     51 H23         5.5100    1.1500    3.6510 hc        1 MOL      0.054393
     52 H24         3.7850    1.1980    3.2840 hc        1 MOL      0.054393
     53 N5          2.4860   -0.4310    1.3530 n         1 MOL     -0.426431
     54 C17         2.2520   -1.2780    2.4900 c3        1 MOL     -0.020158
     55 C18         2.6630   -2.7690    2.3490 c         1 MOL      0.516861
     56 O9          3.2640   -3.1170    1.3630 o         1 MOL     -0.453217
     57 H25         1.8400   -0.6610    0.6020 hn        1 MOL      0.324742
     58 H26         1.2010   -1.2180    2.7790 h1        1 MOL      0.057685
     59 H27         2.8170   -0.8630    3.3190 h1        1 MOL      0.057685
     60 N6          2.5970   -3.5520    3.4430 n         1 MOL     -0.445785
     61 C19         2.9800   -4.9450    3.3710 c3        1 MOL      0.006733
     62 C20         1.9320   -5.6700    2.5750 c         1 MOL      0.702645
     63 O10         0.7980   -5.6760    2.9410 o         1 MOL     -0.563032
     64 C21         3.2780   -5.5910    4.7650 c3        1 MOL     -0.126274
     65 C22         3.8690   -6.9770    4.5560 c         1 MOL      0.686938
     66 O11         3.5530   -7.7740    5.4200 o         1 MOL     -0.649609
     67 O12         4.7940   -7.2760    3.7500 o         1 MOL     -0.649609
     68 H28         2.2480   -3.1120    4.2880 hn        1 MOL      0.274093
     69 H29         3.8820   -5.1060    2.7830 h1        1 MOL     -0.007511
     70 H30         2.3220   -5.7610    5.2710 hc        1 MOL      0.049801
     71 H31         3.8880   -4.9660    5.4290 hc        1 MOL      0.049801
     72 N7          2.4080   -6.2350    1.4490 n         1 MOL     -0.635374
     73 C23         1.6320   -6.9700    0.5020 c3        1 MOL      0.236958
     74 C24         1.2730   -6.1610   -0.6740 c         1 MOL      0.390333
     75 O13         0.8200   -6.8140   -1.6060 o         1 MOL     -0.602268
     76 H32         3.3780   -6.0680    1.2180 hn        1 MOL      0.308445
     77 H33         0.7550   -7.4740    0.9020 h1        1 MOL      0.044224
     78 H34         2.1320   -7.8700    0.1520 h1        1 MOL      0.044224
     79 N8          1.5060   -4.8950   -0.6870 n         1 MOL     -0.163490
     80 C25         1.1190   -3.9360   -1.8030 c3        1 MOL      0.000844
     81 C26         0.3300   -2.8270   -1.1100 c         1 MOL      0.510443
     82 O14         0.4140   -2.7210    0.1490 o         1 MOL     -0.495291
     83 C27         2.4310   -3.3720   -2.3330 c3        1 MOL      0.542445
     84 C28         3.3820   -4.3310   -3.0030 c3        1 MOL     -0.505011
     85 O15         2.1680   -2.3510   -3.2640 oh        1 MOL     -0.668125
     86 H35         1.8560   -4.4340    0.1440 hn        1 MOL      0.082561
     87 H36         0.5990   -4.3340   -2.6700 h1        1 MOL      0.079012
     88 H37         2.9880   -2.9360   -1.5050 h1        1 MOL     -0.029838
     89 H38         2.9210   -1.7660   -3.2270 ho        1 MOL      0.402014
     90 H39         3.6450   -5.1590   -2.3460 hc        1 MOL      0.115211
     91 H40         2.9560   -4.6730   -3.9550 hc        1 MOL      0.115211
     92 H41         4.2970   -3.8020   -3.2660 hc        1 MOL      0.115211
     93 N9         -0.4230   -1.9370   -1.8250 n         1 MOL     -0.487775
     94 C29        -1.1460   -0.7420   -1.2870 c3        1 MOL     -0.217844
     95 C30        -2.6490   -0.9310   -1.1500 c         1 MOL      0.629580
     96 O16        -3.3590    0.0550   -0.9410 o         1 MOL     -0.570710
     97 C31        -0.7490    0.6360   -1.8210 c3        1 MOL      0.217075
     98 C32        -1.4220    0.9420   -3.2040 c3        1 MOL      0.008426
     99 C33         0.7550    0.8320   -1.8100 c3        1 MOL     -0.390205
    100 C34        -1.5930    2.5020   -3.2810 c3        1 MOL     -0.152581
    101 H42        -0.5100   -2.1230   -2.8170 hn        1 MOL      0.313265
    102 H43        -0.9100   -0.5270   -0.2490 h1        1 MOL      0.150613
    103 H44        -1.1990    1.2870   -1.0700 hc        1 MOL      0.045247
    104 H45        -2.4550    0.6160   -3.3120 hc        1 MOL      0.022786
    105 H46        -0.8150    0.5810   -4.0330 hc        1 MOL      0.022786
    106 H47         1.2830    0.4520   -0.9420 hc        1 MOL      0.087118
    107 H48         1.1860    0.2600   -2.6370 hc        1 MOL      0.087118
    108 H49         1.0410    1.8790   -1.9330 hc        1 MOL      0.087118
    109 H50        -1.9460    2.9460   -2.3440 hc        1 MOL      0.036917
    110 H51        -0.6560    3.0280   -3.4020 hc        1 MOL      0.036917
    111 H52        -2.1620    2.7680   -4.1670 hc        1 MOL      0.036917
    112 N10        -3.1950   -2.1490   -1.1540 n         1 MOL     -0.417578
    113 C35        -4.5900   -2.4160   -0.8120 c3        1 MOL     -0.134699
    114 C36        -5.4770   -2.3070   -2.0570 c         1 MOL      0.654935
    115 O17        -5.0100   -2.6220   -3.1440 o         1 MOL     -0.552952
    116 C37        -4.7110   -3.7400   -0.0800 c3        1 MOL      0.392603
    117 C38        -4.1260   -3.6830    1.3140 c3        1 MOL     -0.266392
    118 O18        -6.0800   -4.0890    0.0990 oh        1 MOL     -0.659698
    119 H53        -2.6250   -2.9280   -1.4680 hn        1 MOL      0.259857
    120 H54        -4.8760   -1.7160   -0.0210 h1        1 MOL      0.157535
    121 H55        -4.2150   -4.5560   -0.5950 h1        1 MOL      0.005746
    122 H56        -6.1630   -5.0370    0.2220 ho        1 MOL      0.396296
    123 H57        -4.7900   -3.0560    1.9180 hc        1 MOL      0.073010
    124 H58        -3.8750   -4.6460    1.7640 hc        1 MOL      0.073010
    125 H59        -3.2080   -3.0890    1.2530 hc        1 MOL      0.073010
    126 N11        -6.7010   -1.8370   -1.8430 n         1 MOL     -0.604549
    127 C39        -7.8350   -1.7850   -2.7670 c3        1 MOL      0.213903
    128 C40        -8.7080   -0.5670   -2.5740 c         1 MOL      0.528575
    129 O19        -9.2600    0.0140   -3.5140 o         1 MOL     -0.573892
    130 C41        -8.7320   -3.0470   -2.5930 c3        1 MOL      0.243851
    131 C42       -10.0260   -3.0270   -3.3770 c3        1 MOL     -0.367413
    132 O20        -8.9200   -3.2950   -1.1780 oh        1 MOL     -0.595563
    133 H60        -6.8220   -1.6050   -0.8670 hn        1 MOL      0.270601
    134 H61        -7.4860   -1.7870   -3.8020 h1        1 MOL      0.064916
    135 H62        -8.0570   -3.7910   -3.0010 h1        1 MOL      0.022506
    136 H63        -9.0290   -4.2280   -0.9570 ho        1 MOL      0.396968
    137 H64        -9.8320   -2.6100   -4.3660 hc        1 MOL      0.100691
    138 H65       -10.4330   -4.0350   -3.4350 hc        1 MOL      0.100691
    139 H66       -10.7450   -2.4090   -2.8420 hc        1 MOL      0.100691
    140 N12        -8.8130   -0.1540   -1.3470 n         1 MOL     -0.411319
    141 C43        -9.6100    1.0520   -0.9860 c3        1 MOL      0.023548
    142 C44        -9.1990    1.7340    0.2890 c         1 MOL      0.538800
    143 O21        -8.6130    1.0840    1.1530 o         1 MOL     -0.537429
    144 C45       -11.0940    0.7040   -1.0290 c3        1 MOL     -0.376093
    145 C46       -11.4690   -0.1700    0.1490 c3        1 MOL      0.154300
    146 C47       -12.7990   -0.9570    0.0500 c3        1 MOL     -0.080699
    147 C48       -13.0090   -1.5780    1.3590 c3        1 MOL      0.167040
    148 N13       -14.4370   -1.8120    1.7240 n4        1 MOL     -0.282069
    149 H67        -8.5170   -0.8180   -0.6520 hn        1 MOL      0.309899
    150 H68        -9.2990    1.8540   -1.6430 h1        1 MOL      0.120434
    151 H69       -11.2510    0.1250   -1.9330 hc        1 MOL      0.135350
    152 H70       -11.8380    1.5020   -1.0870 hc        1 MOL      0.135350
    153 H71       -11.5820    0.4620    1.0290 hc        1 MOL     -0.001293
    154 H72       -10.7050   -0.9210    0.3410 hc        1 MOL     -0.001293
    155 H73       -12.7810   -1.6830   -0.7690 hc        1 MOL      0.029474
    156 H74       -13.5520   -0.2050   -0.1800 hc        1 MOL      0.029474
    157 H75       -12.6310   -1.0210    2.2130 hx        1 MOL      0.039272
    158 H76       -12.4970   -2.5470    1.3740 hx        1 MOL      0.039272
    159 H77       -14.9240   -2.4230    1.0760 hn        1 MOL      0.249481
    160 H78       -14.3700   -2.2530    2.6320 hn        1 MOL      0.249481
    161 H79       -15.0270   -0.9890    1.7640 hn        1 MOL      0.249481
    162 N14        -9.4650    3.0180    0.4120 n         1 MOL     -0.467281
    163 C49        -9.0570    3.8330    1.5460 c3        1 MOL      0.160695
    164 C50        -7.5820    4.2560    1.5480 c         1 MOL      0.386972
    165 O22        -6.9800    4.3950    2.6260 o         1 MOL     -0.523015
    166 C51        -9.9620    5.0700    1.5320 c3        1 MOL     -0.022879
    167 C52        -9.5780    6.1670    2.4420 c3        1 MOL     -0.119825
    168 C53       -10.7030    7.1840    2.6150 c         1 MOL      0.658613
    169 O23       -10.9470    7.9610    1.6800 o         1 MOL     -0.654177
    170 O24       -11.4520    6.9940    3.5970 o         1 MOL     -0.654177
    171 H80       -10.0400    3.4240   -0.3120 hn        1 MOL      0.245131
    172 H81        -9.0990    3.2420    2.4680 h1        1 MOL      0.077644
    173 H82       -10.9470    4.6990    1.8230 hc        1 MOL      0.032423
    174 H83       -10.1260    5.5270    0.5650 hc        1 MOL      0.032423
    175 H84        -8.6960    6.6980    2.0760 hc        1 MOL      0.019152
    176 H85        -9.3110    5.8470    3.4450 hc        1 MOL      0.019152
    177 N15        -6.8030    4.3720    0.4250 n         1 MOL     -0.273181
    178 C54        -7.1060    4.5250   -0.9710 c3        1 MOL     -0.170571
    179 H86        -7.8850    5.2770   -1.0930 h1        1 MOL      0.083669
    180 H87        -6.2100    4.8400   -1.5060 h1        1 MOL      0.083669
    181 H88        -7.4540    3.5730   -1.3740 h1        1 MOL      0.083669
    182 H89        -5.8020    4.3440    0.5810 hn        1 MOL      0.266321
    183 Ca1         5.6460    4.9320   -0.4450 Ca        1 MOL      1.622631
    184 O25         2.8070    5.2340   -1.3780 oh        1 MOL     -0.787326
    185 H90         3.1200    6.0470   -1.7830 ho        1 MOL      0.390919
    186 H91         2.2870    5.5310   -0.6310 ho        1 MOL      0.390919
    187 O26         6.0770    4.8200   -3.0660 oh        1 MOL     -0.787326
    188 H92         6.1910    3.9220   -3.3840 ho        1 MOL      0.390919
    189 H93         6.6220    5.3560   -3.6450 ho        1 MOL      0.390919
    190 O27         4.0840    5.5780    1.5450 oh        1 MOL     -0.787326
    191 H94         4.0880    4.9180    2.2370 ho        1 MOL      0.390919
    192 H95         3.5470    6.2900    1.8980 ho        1 MOL      0.390919
    193 O28         4.4070    2.7660   -1.7860 oh        1 MOL     -0.787326
    194 H96         3.9670    2.3560   -1.0350 ho        1 MOL      0.390919
    195 H97         3.7070    2.9070   -2.4230 ho        1 MOL      0.390919
@<TRIPOS>BOND
     1    1    2 1   
     2    1    4 1   
     3    1    5 1   
     4    1    6 1   
     5    2    3 2   
     6    2    7 1   
     7    7    8 1   
     8    7   15 1   
     9    8    9 1   
    10    8   11 1   
    11    8   16 1   
    12    9   10 2   
    13    9   19 1   
    14   11   12 1   
    15   11   17 1   
    16   11   18 1   
    17   12   13 1   
    18   12   14 1   
    19   19   20 1   
    20   19   28 1   
    21   20   21 1   
    22   20   23 1   
    23   20   29 1   
    24   21   22 2   
    25   21   41 1   
    26   23   24 1   
    27   23   30 1   
    28   23   31 1   
    29   24   25 1   
    30   24   32 1   
    31   24   33 1   
    32   25   26 1   
    33   25   34 1   
    34   25   35 1   
    35   26   27 1   
    36   26   36 1   
    37   26   37 1   
    38   27   38 1   
    39   27   39 1   
    40   27   40 1   
    41   41   42 1   
    42   41   49 1   
    43   42   43 1   
    44   42   45 1   
    45   42   50 1   
    46   43   44 2   
    47   43   53 1   
    48   45   46 1   
    49   45   51 1   
    50   45   52 1   
    51   46   47 1   
    52   46   48 1   
    53   53   54 1   
    54   53   57 1   
    55   54   55 1   
    56   54   58 1   
    57   54   59 1   
    58   55   56 2   
    59   55   60 1   
    60   60   61 1   
    61   60   68 1   
    62   61   62 1   
    63   61   64 1   
    64   61   69 1   
    65   62   63 2   
    66   62   72 1   
    67   64   65 1   
    68   64   70 1   
    69   64   71 1   
    70   65   66 1   
    71   65   67 1   
    72   72   73 1   
    73   72   76 1   
    74   73   74 1   
    75   73   77 1   
    76   73   78 1   
    77   74   75 2   
    78   74   79 1   
    79   79   80 1   
    80   79   86 1   
    81   80   81 1   
    82   80   83 1   
    83   80   87 1   
    84   81   82 2   
    85   81   93 1   
    86   83   84 1   
    87   83   85 1   
    88   83   88 1   
    89   84   90 1   
    90   84   91 1   
    91   84   92 1   
    92   85   89 1   
    93   93   94 1   
    94   93  101 1   
    95   94   95 1   
    96   94   97 1   
    97   94  102 1   
    98   95   96 2   
    99   95  112 1   
   100   97   98 1   
   101   97   99 1   
   102   97  103 1   
   103   98  100 1   
   104   98  104 1   
   105   98  105 1   
   106   99  106 1   
   107   99  107 1   
   108   99  108 1   
   109  100  109 1   
   110  100  110 1   
   111  100  111 1   
   112  112  113 1   
   113  112  119 1   
   114  113  114 1   
   115  113  116 1   
   116  113  120 1   
   117  114  115 2   
   118  114  126 1   
   119  116  117 1   
   120  116  118 1   
   121  116  121 1   
   122  117  123 1   
   123  117  124 1   
   124  117  125 1   
   125  118  122 1   
   126  126  127 1   
   127  126  133 1   
   128  127  128 1   
   129  127  130 1   
   130  127  134 1   
   131  128  129 2   
   132  128  140 1   
   133  130  131 1   
   134  130  132 1   
   135  130  135 1   
   136  131  137 1   
   137  131  138 1   
   138  131  139 1   
   139  132  136 1   
   140  140  141 1   
   141  140  149 1   
   142  141  142 1   
   143  141  144 1   
   144  141  150 1   
   145  142  143 2   
   146  142  162 1   
   147  144  145 1   
   148  144  151 1   
   149  144  152 1   
   150  145  146 1   
   151  145  153 1   
   152  145  154 1   
   153  146  147 1   
   154  146  155 1   
   155  146  156 1   
   156  147  148 1   
   157  147  157 1   
   158  147  158 1   
   159  148  159 1   
   160  148  160 1   
   161  148  161 1   
   162  162  163 1   
   163  162  171 1   
   164  163  164 1   
   165  163  166 1   
   166  163  172 1   
   167  164  165 2   
   168  164  177 1   
   169  166  167 1   
   170  166  173 1   
   171  166  174 1   
   172  167  168 1   
   173  167  175 1   
   174  167  176 1   
   175  168  169 1   
   176  168  170 1   
   177  177  178 1   
   178  177  182 1   
   179  178  179 1   
   180  178  180 1   
   181  178  181 1   
   182  184  185 1   
   183  184  186 1   
   184  187  188 1   
   185  187  189 1   
   186  190  191 1   
   187  190  192 1   
   188  193  194 1   
   189  193  195 1   
@<TRIPOS>SUBSTRUCTURE
     1 MOL         1 TEMP              0 ****  ****    0 ROOT
