@<TRIPOS>MOLECULE
MOL
  192   187     1     0     0
SMALL
resp


@<TRIPOS>ATOM
      1 C1          9.4300    0.6980    1.6030 c3        1 MOL     -0.318280
      2 C2          8.3410    0.1880    0.7380 c         1 MOL      0.708119
      3 O1          7.2610   -0.0320    1.2390 o         1 MOL     -0.652615
      4 H1          9.0010    1.1970    2.4710 hc        1 MOL      0.084041
      5 H2         10.0520   -0.1340    1.9330 hc        1 MOL      0.084041
      6 H3         10.0390    1.4070    1.0410 hc        1 MOL      0.084041
      7 N1          8.4370    0.1050   -0.5640 n         1 MOL     -0.429650
      8 C3          7.3340   -0.0200   -1.5630 c3        1 MOL      0.050537
      9 C4          6.7400   -1.4540   -1.6310 c         1 MOL      0.443213
     10 O2          6.3500   -1.9840   -2.7360 o         1 MOL     -0.468895
     11 C5          7.8080    0.5710   -2.9090 c3        1 MOL     -0.086889
     12 C6          9.2280    0.2170   -3.2810 c         1 MOL      0.695502
     13 O3          9.4210   -0.2740   -4.3870 o         1 MOL     -0.634345
     14 O4         10.2120    0.4770   -2.5570 o         1 MOL     -0.634345
     15 H4          9.3250    0.3460   -0.9790 hn        1 MOL      0.167833
     16 H5          6.4960    0.6260   -1.2970 h1        1 MOL      0.104606
     17 H6          7.7200    1.6530   -2.8330 hc        1 MOL      0.035215
     18 H7          7.1540    0.2290   -3.7120 hc        1 MOL      0.035215
     19 N2          6.6090   -2.1220   -0.5090 n         1 MOL     -0.226542
     20 C7          6.2140   -3.5020   -0.2600 c3        1 MOL      0.010138
     21 C8          4.6940   -3.6810   -0.6210 c         1 MOL      0.371636
     22 O5          4.4550   -4.5870   -1.3900 o         1 MOL     -0.483985
     23 C9          6.5670   -4.0500    1.1320 c3        1 MOL      0.036517
     24 C10         7.9940   -3.6560    1.6570 c3        1 MOL     -0.028925
     25 C11         8.2110   -4.1220    3.1330 c3        1 MOL      0.019892
     26 C12         9.6660   -3.7640    3.5420 c3        1 MOL      0.105518
     27 N3          9.9300   -4.2100    4.9230 n4        1 MOL     -0.317174
     28 H8          6.8050   -1.5460    0.2980 hn        1 MOL      0.028735
     29 H9          6.7780   -4.1140   -0.9590 h1        1 MOL      0.096022
     30 H10         6.5460   -5.1420    1.1640 hc        1 MOL      0.012856
     31 H11         5.8410   -3.7140    1.8650 hc        1 MOL      0.012856
     32 H12         8.0540   -2.5660    1.6620 hc        1 MOL      0.031778
     33 H13         8.7240   -4.1340    1.0040 hc        1 MOL      0.031778
     34 H14         8.1210   -5.2140    3.0920 hc        1 MOL      0.007234
     35 H15         7.4140   -3.7620    3.7960 hc        1 MOL      0.007234
     36 H16         9.7680   -2.7120    3.2610 hx        1 MOL      0.044206
     37 H17        10.2810   -4.3750    2.8870 hx        1 MOL      0.044206
     38 H18         9.5750   -3.5570    5.6200 hn        1 MOL      0.278187
     39 H19         9.5100   -5.1310    4.9980 hn        1 MOL      0.278187
     40 H20        10.9340   -4.2950    4.9930 hn        1 MOL      0.278187
     41 N4          3.7170   -2.8040   -0.2090 n         1 MOL     -0.253745
     42 C13         3.9200   -1.6750    0.7240 c3        1 MOL     -0.105206
     43 C14         3.9400   -0.3150   -0.0170 c         1 MOL      0.204675
     44 O6          3.8420   -0.2190   -1.2520 o         1 MOL     -0.421048
     45 C15         2.8300   -1.7080    1.8250 c3        1 MOL     -0.329998
     46 C16         1.4230   -1.9830    1.2240 c         1 MOL      0.898491
     47 O7          0.9060   -1.0270    0.5800 o         1 MOL     -0.729649
     48 O8          0.9060   -3.0920    1.3270 o         1 MOL     -0.729649
     49 H21         2.7910   -2.9180   -0.5750 hn        1 MOL      0.302818
     50 H22         4.8700   -1.7460    1.2500 h1        1 MOL      0.247068
     51 H23         2.7800   -0.7460    2.3210 hc        1 MOL      0.045763
     52 H24         3.1150   -2.5420    2.4730 hc        1 MOL      0.045763
     53 N5          3.9840    0.8280    0.6960 n         1 MOL     -0.151000
     54 C17         4.0330    2.2260    0.1790 c3        1 MOL     -0.159776
     55 C18         2.7510    2.7270   -0.4440 c         1 MOL      0.670263
     56 O9          1.7160    2.0420   -0.5560 o         1 MOL     -0.584853
     57 H25         4.2550    0.7310    1.6630 hn        1 MOL      0.232252
     58 H26         4.8190    2.2400   -0.5740 h1        1 MOL      0.098423
     59 H27         4.3390    2.9630    0.9190 h1        1 MOL      0.098423
     60 N6          2.9010    3.9330   -1.0070 n         1 MOL     -0.680220
     61 C19         1.9860    4.5810   -1.8820 c3        1 MOL      0.482029
     62 C20         2.2740    6.1110   -1.8280 c         1 MOL      0.467686
     63 O10         3.3180    6.5900   -1.4750 o         1 MOL     -0.525528
     64 C21         2.0570    4.1630   -3.3820 c3        1 MOL     -0.309443
     65 C22         1.4500    2.7890   -3.5390 c         1 MOL      0.782617
     66 O11         0.3620    2.5180   -3.0380 o         1 MOL     -0.709370
     67 O12         2.0580    1.9950   -4.3090 o         1 MOL     -0.709370
     68 H28         3.8340    4.3060   -1.0910 hn        1 MOL      0.308399
     69 H29         0.9840    4.4610   -1.4750 h1        1 MOL      0.001061
     70 H30         3.1010    4.3780   -3.6100 hc        1 MOL      0.063300
     71 H31         1.4610    4.8700   -3.9590 hc        1 MOL      0.063300
     72 N7          1.2490    6.9760   -2.0670 n         1 MOL     -0.567495
     73 C23        -0.1870    6.6620   -2.2400 c3        1 MOL      0.038174
     74 C24        -0.8270    6.3120   -0.9000 c         1 MOL      0.593585
     75 O13        -0.2950    6.6910    0.1390 o         1 MOL     -0.502893
     76 H32         1.4340    7.9370   -1.8310 hn        1 MOL      0.344933
     77 H33        -0.3170    5.7230   -2.7940 h1        1 MOL      0.045626
     78 H34        -0.6920    7.4840   -2.7330 h1        1 MOL      0.045626
     79 N8         -1.9990    5.6070   -0.9970 n         1 MOL     -0.664922
     80 C25        -2.6490    4.9170    0.1960 c3        1 MOL      0.044735
     81 C26        -1.6850    3.8110    0.7160 c         1 MOL      0.647413
     82 O14        -1.1110    3.0710   -0.0410 o         1 MOL     -0.575879
     83 C27        -4.0760    4.4960   -0.1960 c3        1 MOL      0.154207
     84 C28        -4.7560    3.7280    1.0100 c3        1 MOL     -0.418899
     85 O15        -4.0480    3.6240   -1.3160 oh        1 MOL     -0.518956
     86 H35        -2.3280    5.4180   -1.9260 hn        1 MOL      0.354417
     87 H36        -2.6310    5.6470    1.0100 h1        1 MOL      0.070721
     88 H37        -4.7090    5.3410   -0.4660 h1        1 MOL      0.072553
     89 H38        -4.9840    3.6000   -1.5240 ho        1 MOL      0.393373
     90 H39        -4.6970    4.1560    2.0100 hc        1 MOL      0.117087
     91 H40        -5.8040    3.6220    0.7330 hc        1 MOL      0.117087
     92 H41        -4.2910    2.7500    1.1340 hc        1 MOL      0.117087
     93 N9         -1.5820    3.6830    2.0070 n         1 MOL     -0.477793
     94 C29        -1.0180    2.5550    2.8510 c3        1 MOL      0.158676
     95 C30        -1.4240    1.1130    2.4160 c         1 MOL      0.076341
     96 O16        -1.2920    0.7320    1.2620 o         1 MOL     -0.303185
     97 C31         0.5560    2.7310    2.9270 c3        1 MOL      0.096325
     98 C32         0.8860    4.0550    3.6090 c3        1 MOL     -0.040525
     99 C33         1.2660    1.5610    3.6310 c3        1 MOL     -0.171523
    100 C34         0.7610    4.1370    5.1270 c3        1 MOL     -0.266453
    101 H42        -2.1070    4.4070    2.4810 hn        1 MOL      0.250513
    102 H43        -1.4580    2.6260    3.8410 h1        1 MOL      0.047263
    103 H44         0.9550    2.5210    1.9300 hc        1 MOL     -0.012134
    104 H45         0.5060    4.9090    3.0420 hc        1 MOL      0.042054
    105 H46         1.9320    4.2140    3.3690 hc        1 MOL      0.042054
    106 H47         1.4120    0.7500    2.9190 hc        1 MOL      0.054384
    107 H48         2.2680    1.8840    3.9010 hc        1 MOL      0.054384
    108 H49         0.9060    1.2220    4.6090 hc        1 MOL      0.054384
    109 H50         1.2730    5.0280    5.5030 hc        1 MOL      0.068856
    110 H51        -0.3000    4.0520    5.3620 hc        1 MOL      0.068856
    111 H52         1.2030    3.3000    5.6640 hc        1 MOL      0.068856
    112 N10        -1.8450    0.3330    3.4130 n         1 MOL     -0.063601
    113 C35        -2.2840   -1.0810    3.1230 c3        1 MOL     -0.290341
    114 C36        -3.7970   -1.3030    2.9980 c         1 MOL      0.635948
    115 O17        -4.2060   -2.4660    2.7250 o         1 MOL     -0.600739
    116 C37        -1.8740   -1.9290    4.2560 c3        1 MOL      0.458141
    117 C38        -2.1730   -1.3960    5.6690 c3        1 MOL     -0.466588
    118 O18        -0.4270   -2.0660    4.1650 oh        1 MOL     -0.625016
    119 H53        -1.8490    0.6430    4.3740 hn        1 MOL      0.160177
    120 H54        -1.8050   -1.3200    2.1830 h1        1 MOL      0.197616
    121 H55        -2.2750   -2.9170    4.0410 h1        1 MOL      0.011672
    122 H56        -0.2810   -2.6090    3.3950 ho        1 MOL      0.350388
    123 H57        -1.8780   -0.3470    5.7640 hc        1 MOL      0.128282
    124 H58        -3.2440   -1.5600    5.8090 hc        1 MOL      0.128282
    125 H59        -1.5060   -1.9560    6.3310 hc        1 MOL      0.128282
    126 N11        -4.6520   -0.2590    2.9630 n         1 MOL     -0.440150
    127 C39        -6.0920   -0.4660    2.6730 c3        1 MOL      0.123125
    128 C40        -6.2730   -0.5700    1.1250 c         1 MOL      0.561453
    129 O19        -6.0220    0.4310    0.4820 o         1 MOL     -0.547459
    130 C41        -6.9670    0.5600    3.3210 c3        1 MOL      0.340854
    131 C42        -8.4660    0.1760    3.3310 c3        1 MOL     -0.435771
    132 O20        -6.7040    0.5940    4.7250 oh        1 MOL     -0.646188
    133 H60        -4.2450    0.6520    3.1410 hn        1 MOL      0.228892
    134 H61        -6.3890   -1.4550    3.0200 h1        1 MOL      0.048330
    135 H62        -6.9330    1.5310    2.8360 h1        1 MOL      0.012215
    136 H63        -7.4700    0.9370    5.1990 ho        1 MOL      0.409892
    137 H64        -8.9480    0.1090    2.3570 hc        1 MOL      0.103460
    138 H65        -8.6040   -0.7410    3.9050 hc        1 MOL      0.103460
    139 H66        -9.1100    0.9240    3.8060 hc        1 MOL      0.103460
    140 N12        -6.8860   -1.6840    0.6890 n         1 MOL     -0.389531
    141 C43        -6.9450   -2.1660   -0.7100 c3        1 MOL      0.037188
    142 C44        -5.5380   -2.0210   -1.3630 c         1 MOL      0.491397
    143 O21        -5.1530   -0.9630   -1.9340 o         1 MOL     -0.480721
    144 C45        -8.0500   -1.4270   -1.4750 c3        1 MOL     -0.653785
    145 C46        -9.4410   -1.6170   -0.8210 c3        1 MOL      0.262564
    146 C47       -10.4680   -1.1250   -1.8530 c3        1 MOL     -0.060310
    147 C48       -11.8990   -1.2700   -1.3070 c3        1 MOL      0.062387
    148 N13       -12.9670   -1.0340   -2.3630 n4        1 MOL     -0.164137
    149 H67        -7.3000   -2.2460    1.4230 hn        1 MOL      0.247638
    150 H68        -7.0950   -3.2440   -0.6120 h1        1 MOL      0.091780
    151 H69        -8.1170   -1.7430   -2.5140 hc        1 MOL      0.216261
    152 H70        -7.8730   -0.3510   -1.5150 hc        1 MOL      0.216261
    153 H71        -9.5560   -1.0680    0.1130 hc        1 MOL     -0.012291
    154 H72        -9.6110   -2.6520   -0.5510 hc        1 MOL     -0.012291
    155 H73       -10.3000   -1.6230   -2.8220 hc        1 MOL      0.040935
    156 H74       -10.2770   -0.0650   -2.0120 hc        1 MOL      0.040935
    157 H75       -11.9790   -0.4090   -0.6520 hx        1 MOL      0.039443
    158 H76       -12.1400   -2.1430   -0.7130 hx        1 MOL      0.039443
    159 H77       -13.8410   -1.1040   -1.8540 hn        1 MOL      0.195215
    160 H78       -12.9950   -0.1310   -2.8020 hn        1 MOL      0.195215
    161 H79       -12.9140   -1.7730   -3.0450 hn        1 MOL      0.195215
    162 N14        -4.6620   -3.0840   -1.1460 n         1 MOL     -0.355145
    163 C49        -3.2890   -3.1380   -1.7820 c3        1 MOL      0.128365
    164 C50        -2.2270   -2.6820   -0.8380 c         1 MOL      0.386936
    165 O22        -1.8020   -1.5130   -0.9810 o         1 MOL     -0.696432
    166 C51        -3.1330   -4.4910   -2.5070 c3        1 MOL      0.076740
    167 C52        -3.8930   -4.5080   -3.9170 c3        1 MOL     -0.286502
    168 C53        -3.8300   -5.8960   -4.4590 c         1 MOL      0.682589
    169 O23        -2.7720   -6.2950   -4.9460 o         1 MOL     -0.622677
    170 O24        -4.7770   -6.7880   -4.2420 o         1 MOL     -0.622677
    171 H80        -5.0450   -3.8310   -0.5900 hn        1 MOL      0.247453
    172 H81        -3.2980   -2.4060   -2.5950 h1        1 MOL      0.126729
    173 H82        -3.5240   -5.3040   -1.8980 hc        1 MOL      0.025800
    174 H83        -2.0710   -4.6430   -2.6760 hc        1 MOL      0.025800
    175 H84        -3.4550   -3.7520   -4.5740 hc        1 MOL      0.041262
    176 H85        -4.9240   -4.2420   -3.7230 hc        1 MOL      0.041262
    177 N15        -1.7020   -3.4970    0.1060 n         1 MOL     -0.212592
    178 C54        -1.9340   -4.8800    0.4450 c3        1 MOL     -0.167715
    179 H86        -1.6830   -5.5100   -0.4080 h1        1 MOL      0.079048
    180 H87        -1.3100   -5.1560    1.2950 h1        1 MOL      0.079048
    181 H88        -2.9840   -5.0200    0.7030 h1        1 MOL      0.079048
    182 H89        -0.8430   -3.1320    0.4810 hn        1 MOL      0.307051
    183 Ca1        -0.4270    0.6970   -1.2150 Ca        1 MOL      1.787409
    184 O25        -1.6160    0.0760   -3.4680 oh        1 MOL     -0.845377
    185 H90        -1.2730    0.4060   -4.2940 ho        1 MOL      0.405028
    186 H91        -1.5560   -0.8800   -3.5420 ho        1 MOL      0.405028
    187 O26        -3.0290    0.7450   -1.0610 oh        1 MOL     -0.845377
    188 H92        -3.5060    1.5430   -0.8340 ho        1 MOL      0.405028
    189 H93        -3.7070    0.0580   -1.0790 ho        1 MOL      0.405028
    190 O27         1.5990   -0.4090   -2.7930 oh        1 MOL     -0.845377
    191 H94         2.4460   -0.6740   -2.4470 ho        1 MOL      0.405028
    192 H95         1.8050    0.1030   -3.5800 ho        1 MOL      0.405028
@<TRIPOS>BOND
     1    1    2 1   
     2    1    4 1   
     3    1    5 1   
     4    1    6 1   
     5    2    3 2   
     6    2    7 1   
     7    7    8 1   
     8    7   15 1   
     9    8    9 1   
    10    8   11 1   
    11    8   16 1   
    12    9   10 2   
    13    9   19 1   
    14   11   12 1   
    15   11   17 1   
    16   11   18 1   
    17   12   13 1   
    18   12   14 1   
    19   19   20 1   
    20   19   28 1   
    21   20   21 1   
    22   20   23 1   
    23   20   29 1   
    24   21   22 2   
    25   21   41 1   
    26   23   24 1   
    27   23   30 1   
    28   23   31 1   
    29   24   25 1   
    30   24   32 1   
    31   24   33 1   
    32   25   26 1   
    33   25   34 1   
    34   25   35 1   
    35   26   27 1   
    36   26   36 1   
    37   26   37 1   
    38   27   38 1   
    39   27   39 1   
    40   27   40 1   
    41   41   42 1   
    42   41   49 1   
    43   42   43 1   
    44   42   45 1   
    45   42   50 1   
    46   43   44 2   
    47   43   53 1   
    48   45   46 1   
    49   45   51 1   
    50   45   52 1   
    51   46   47 1   
    52   46   48 1   
    53   53   54 1   
    54   53   57 1   
    55   54   55 1   
    56   54   58 1   
    57   54   59 1   
    58   55   56 2   
    59   55   60 1   
    60   60   61 1   
    61   60   68 1   
    62   61   62 1   
    63   61   64 1   
    64   61   69 1   
    65   62   63 2   
    66   62   72 1   
    67   64   65 1   
    68   64   70 1   
    69   64   71 1   
    70   65   66 1   
    71   65   67 1   
    72   72   73 1   
    73   72   76 1   
    74   73   74 1   
    75   73   77 1   
    76   73   78 1   
    77   74   75 2   
    78   74   79 1   
    79   79   80 1   
    80   79   86 1   
    81   80   81 1   
    82   80   83 1   
    83   80   87 1   
    84   81   82 2   
    85   81   93 1   
    86   83   84 1   
    87   83   85 1   
    88   83   88 1   
    89   84   90 1   
    90   84   91 1   
    91   84   92 1   
    92   85   89 1   
    93   93   94 1   
    94   93  101 1   
    95   94   95 1   
    96   94   97 1   
    97   94  102 1   
    98   95   96 2   
    99   95  112 1   
   100   97   98 1   
   101   97   99 1   
   102   97  103 1   
   103   98  100 1   
   104   98  104 1   
   105   98  105 1   
   106   99  106 1   
   107   99  107 1   
   108   99  108 1   
   109  100  109 1   
   110  100  110 1   
   111  100  111 1   
   112  112  113 1   
   113  112  119 1   
   114  113  114 1   
   115  113  116 1   
   116  113  120 1   
   117  114  115 2   
   118  114  126 1   
   119  116  117 1   
   120  116  118 1   
   121  116  121 1   
   122  117  123 1   
   123  117  124 1   
   124  117  125 1   
   125  118  122 1   
   126  126  127 1   
   127  126  133 1   
   128  127  128 1   
   129  127  130 1   
   130  127  134 1   
   131  128  129 2   
   132  128  140 1   
   133  130  131 1   
   134  130  132 1   
   135  130  135 1   
   136  131  137 1   
   137  131  138 1   
   138  131  139 1   
   139  132  136 1   
   140  140  141 1   
   141  140  149 1   
   142  141  142 1   
   143  141  144 1   
   144  141  150 1   
   145  142  143 2   
   146  142  162 1   
   147  144  145 1   
   148  144  151 1   
   149  144  152 1   
   150  145  146 1   
   151  145  153 1   
   152  145  154 1   
   153  146  147 1   
   154  146  155 1   
   155  146  156 1   
   156  147  148 1   
   157  147  157 1   
   158  147  158 1   
   159  148  159 1   
   160  148  160 1   
   161  148  161 1   
   162  162  163 1   
   163  162  171 1   
   164  163  164 1   
   165  163  166 1   
   166  163  172 1   
   167  164  165 2   
   168  164  177 1   
   169  166  167 1   
   170  166  173 1   
   171  166  174 1   
   172  167  168 1   
   173  167  175 1   
   174  167  176 1   
   175  168  169 1   
   176  168  170 1   
   177  177  178 1   
   178  177  182 1   
   179  178  179 1   
   180  178  180 1   
   181  178  181 1   
   182  184  185 1   
   183  184  186 1   
   184  187  188 1   
   185  187  189 1   
   186  190  191 1   
   187  190  192 1   
@<TRIPOS>SUBSTRUCTURE
     1 MOL         1 TEMP              0 ****  ****    0 ROOT
