@<TRIPOS>MOLECULE
MOL
  182   178     1     0     0
SMALL
resp


@<TRIPOS>ATOM
      1 C1          0.2020   -3.9340    5.7560 c3        1 MOL     -0.420845
      2 C2          0.5180   -3.7790    4.2570 c         1 MOL      0.714547
      3 O1         -0.3670   -3.9750    3.2840 o         1 MOL     -0.656347
      4 H1          1.1330   -3.9790    6.3200 hc        1 MOL      0.131529
      5 H2         -0.3860   -3.0820    6.0940 hc        1 MOL      0.131529
      6 H3         -0.3630   -4.8530    5.9160 hc        1 MOL      0.131529
      7 N1          1.7790   -3.5450    3.8670 n         1 MOL     -0.518773
      8 C3          2.1400   -3.2320    2.5280 c3        1 MOL     -0.022108
      9 C4          2.3920   -4.5140    1.6670 c         1 MOL      0.709991
     10 O2          3.0340   -5.4200    2.1290 o         1 MOL     -0.564915
     11 C5          3.2930   -2.1310    2.6730 c3        1 MOL     -0.056320
     12 C6          3.6540   -1.4380    1.4200 c         1 MOL      0.418161
     13 O3          4.2090   -0.3660    1.5670 o         1 MOL     -0.613741
     14 O4          3.3900   -1.9020    0.2550 o         1 MOL     -0.613741
     15 H4          2.5210   -3.4230    4.5400 hn        1 MOL      0.306065
     16 H5          1.3080   -2.7100    2.0550 h1        1 MOL      0.099394
     17 H6          4.1860   -2.7110    2.9410 hc        1 MOL      0.060619
     18 H7          3.0240   -1.3620    3.3980 hc        1 MOL      0.060619
     19 N2          1.9090   -4.5170    0.4400 n         1 MOL     -0.487961
     20 C7          2.0010   -5.5840   -0.5980 c3        1 MOL      0.054726
     21 C8          3.2410   -5.3460   -1.4590 c         1 MOL      0.387455
     22 O5          3.6980   -6.3200   -2.0600 o         1 MOL     -0.556271
     23 C9          0.6700   -5.6010   -1.4190 c3        1 MOL      0.100001
     24 C10        -0.4550   -6.2520   -0.6480 c3        1 MOL     -0.009928
     25 C11        -1.6350   -6.5380   -1.5910 c3        1 MOL     -0.091993
     26 C12        -2.9020   -6.9580   -0.8580 c3        1 MOL      0.107754
     27 N3         -4.1050   -6.9140   -1.7910 n4        1 MOL     -0.297888
     28 H8          1.5880   -3.6020    0.1620 hn        1 MOL      0.215120
     29 H9          2.0680   -6.5910   -0.1910 h1        1 MOL      0.106688
     30 H10         0.7530   -6.2840   -2.2630 hc        1 MOL     -0.021233
     31 H11         0.5360   -4.5900   -1.7840 hc        1 MOL     -0.021233
     32 H12        -0.7950   -5.5130    0.0870 hc        1 MOL      0.037281
     33 H13        -0.0510   -7.0510   -0.0280 hc        1 MOL      0.037281
     34 H14        -1.4190   -7.3430   -2.2890 hc        1 MOL      0.045272
     35 H15        -1.9100   -5.6720   -2.1950 hc        1 MOL      0.045272
     36 H16        -3.1020   -6.2130   -0.0860 hx        1 MOL      0.062472
     37 H17        -2.8770   -7.9140   -0.3240 hx        1 MOL      0.062472
     38 H18        -3.7340   -6.8890   -2.7260 hn        1 MOL      0.269789
     39 H19        -4.7350   -7.7010   -1.7040 hn        1 MOL      0.269789
     40 H20        -4.5460   -6.0130   -1.7000 hn        1 MOL      0.269789
     41 N4          3.7640   -4.1380   -1.5600 n         1 MOL      0.012680
     42 C13         5.1210   -3.9130   -2.2180 c3        1 MOL      0.046204
     43 C14         6.2880   -3.5020   -1.2450 c         1 MOL      0.348843
     44 O6          7.4810   -3.7120   -1.5320 o         1 MOL     -0.511274
     45 C15         5.0250   -2.9270   -3.3970 c3        1 MOL     -0.335230
     46 C16         4.4200   -1.5770   -3.0410 c         1 MOL      0.796736
     47 O7          5.0470   -0.9620   -2.1590 o         1 MOL     -0.759443
     48 O8          3.3040   -1.1690   -3.3350 o         1 MOL     -0.759443
     49 H21         3.2860   -3.3820   -1.0870 hn        1 MOL     -0.104469
     50 H22         5.4030   -4.9100   -2.5620 h1        1 MOL      0.105233
     51 H23         4.3840   -3.3090   -4.1950 hc        1 MOL      0.094595
     52 H24         6.0560   -2.7760   -3.6900 hc        1 MOL      0.094595
     53 N5          5.9210   -2.8790   -0.1100 n         1 MOL     -0.021933
     54 C17         6.8780   -2.5690    0.9430 c3        1 MOL     -0.390156
     55 C18         7.3530   -1.0850    1.0590 c         1 MOL      0.661678
     56 O9          8.0180   -0.7080    1.9900 o         1 MOL     -0.576090
     57 H25         4.9350   -2.8450    0.1080 hn        1 MOL      0.150216
     58 H26         7.7770   -3.1650    0.7840 h1        1 MOL      0.151443
     59 H27         6.4130   -2.7640    1.9100 h1        1 MOL      0.151443
     60 N6          6.9490   -0.2170    0.1450 n         1 MOL     -0.118114
     61 C19         7.3750    1.0990    0.0150 c3        1 MOL     -0.083409
     62 C20         6.2890    2.1240   -0.2180 c         1 MOL      0.567914
     63 O10         5.1810    1.8380   -0.6850 o         1 MOL     -0.556234
     64 C21         8.2510    1.2000   -1.2120 c3        1 MOL     -0.205416
     65 C22         9.4300    0.2970   -1.1420 c         1 MOL      0.600221
     66 N7          9.5130   -0.6440   -2.0140 n         1 MOL     -0.742889
     67 O11        10.3240    0.4700   -0.3350 o         1 MOL     -0.529441
     68 H28         6.3330   -0.5680   -0.5620 hn        1 MOL      0.187343
     69 H29         7.9750    1.3800    0.8810 h1        1 MOL      0.074553
     70 H30         8.5560    2.2420   -1.3060 hc        1 MOL      0.051084
     71 H31         7.6490    0.8280   -2.0430 hc        1 MOL      0.051084
     72 H32         8.9230   -0.6820   -2.8270 hn        1 MOL      0.363250
     73 H33        10.3470   -1.2070   -2.0600 hn        1 MOL      0.363250
     74 N8          6.5660    3.4230    0.1300 n         1 MOL     -0.392785
     75 C23         5.7150    4.5680   -0.2740 c3        1 MOL     -0.248756
     76 C24         4.5230    4.6610    0.6620 c         1 MOL      0.672492
     77 O12         4.6390    4.5080    1.8970 o         1 MOL     -0.507151
     78 H34         7.4720    3.5610    0.5660 hn        1 MOL      0.328897
     79 H35         5.4190    4.4660   -1.3130 h1        1 MOL      0.127390
     80 H36         6.3690    5.4370   -0.1490 h1        1 MOL      0.127390
     81 N9          3.3830    5.0080    0.0360 n         1 MOL     -0.542736
     82 C25         2.0410    4.8730    0.5930 c3        1 MOL      0.067799
     83 C26         1.6580    3.4570    0.9500 c         1 MOL      0.469539
     84 O13         2.3900    2.5220    0.5590 o         1 MOL     -0.536418
     85 C27         1.0780    5.6040   -0.3570 c3        1 MOL     -0.001515
     86 C28         1.2860    7.1070   -0.5710 ca        1 MOL     -0.013818
     87 C29         1.5650    7.6630   -1.8040 ca        1 MOL     -0.117077
     88 C30         1.1180    7.9550    0.5880 ca        1 MOL     -0.117077
     89 C31         1.9650    8.9920   -1.8530 ca        1 MOL     -0.273377
     90 C32         1.5330    9.2920    0.4870 ca        1 MOL     -0.273377
     91 C33         2.0110    9.8190   -0.6950 ca        1 MOL      0.358386
     92 O14         2.3700   11.0850   -0.8010 oh        1 MOL     -0.431159
     93 H37         3.4310    5.1230   -0.9680 hn        1 MOL      0.255624
     94 H38         2.0710    5.4180    1.5390 h1        1 MOL      0.104342
     95 H39         0.0150    5.4100   -0.2120 hc        1 MOL      0.013920
     96 H40         1.1870    5.1210   -1.3220 hc        1 MOL      0.013920
     97 H41         1.5440    7.0370   -2.6810 ha        1 MOL      0.122888
     98 H42         0.8390    7.5480    1.5510 ha        1 MOL      0.122888
     99 H43         2.4510    9.3440   -2.7530 ha        1 MOL      0.152827
    100 H44         1.3790    9.9470    1.3310 ha        1 MOL      0.152827
    101 H45         2.3970   11.2820   -1.7340 ho        1 MOL      0.339208
    102 N10         0.5660    3.2620    1.6790 n         1 MOL     -0.493424
    103 C34         0.0230    1.9540    2.2050 c3        1 MOL      0.062235
    104 C35        -0.2480    0.8410    1.1040 c         1 MOL      0.296943
    105 O15         0.6740    0.4100    0.3810 o         1 MOL     -0.418764
    106 C36         0.8830    1.3660    3.3710 c3        1 MOL      0.249153
    107 C37         0.2920    0.0830    3.9640 c3        1 MOL     -0.093745
    108 C38         1.1900    2.3310    4.5180 c3        1 MOL     -0.183776
    109 C39        -1.0710    0.3260    4.7360 c3        1 MOL     -0.477514
    110 H46        -0.0460    4.0590    1.8120 hn        1 MOL      0.289104
    111 H47        -0.9700    2.2360    2.5530 h1        1 MOL      0.053084
    112 H48         1.8720    1.1090    2.9900 hc        1 MOL      0.057780
    113 H49         1.0520   -0.4290    4.5550 hc        1 MOL      0.055444
    114 H50         0.2320   -0.5960    3.1180 hc        1 MOL      0.055444
    115 H51         1.6420    3.2510    4.1570 hc        1 MOL      0.043699
    116 H52         0.2690    2.7240    4.9550 hc        1 MOL      0.043699
    117 H53         1.9160    1.9910    5.2500 hc        1 MOL      0.043699
    118 H54        -1.8010    0.7370    4.0370 hc        1 MOL      0.131494
    119 H55        -1.3830   -0.6440    5.1280 hc        1 MOL      0.131494
    120 H56        -0.8880    0.8920    5.6480 hc        1 MOL      0.131494
    121 N11        -1.4350    0.3110    1.0760 n         1 MOL     -0.151641
    122 C40        -1.8230   -0.7500    0.1310 c3        1 MOL     -0.464894
    123 C41        -3.3320   -0.8240   -0.2210 c         1 MOL      0.804394
    124 O16        -3.7530   -1.5610   -1.0610 o         1 MOL     -0.536359
    125 C42        -1.3040   -2.1250    0.5890 c3        1 MOL      0.307455
    126 O17        -1.8640   -2.3580    1.8310 oh        1 MOL     -0.572089
    127 H57        -2.1330    0.5910    1.7450 hn        1 MOL      0.235235
    128 H58        -1.3940   -0.4720   -0.8370 h1        1 MOL      0.184844
    129 H59        -0.2230   -2.1410    0.6930 h1        1 MOL     -0.006105
    130 H60        -1.6320   -2.8790   -0.1310 h1        1 MOL     -0.006105
    131 H61        -1.3240   -3.0080    2.2900 ho        1 MOL      0.381147
    132 N12        -4.2780   -0.1020    0.5000 n         1 MOL     -0.691609
    133 C43        -5.7120    0.0350    0.0780 c3        1 MOL      0.195282
    134 C44        -5.9180    0.5040   -1.4070 c         1 MOL      0.606463
    135 O18        -5.0020    1.0860   -1.9620 o         1 MOL     -0.568014
    136 C45        -6.4970    0.9930    0.9780 c3        1 MOL     -0.310336
    137 H62        -3.9780    0.4830    1.2660 hn        1 MOL      0.332712
    138 H63        -6.1320   -0.9560    0.2340 h1        1 MOL      0.084446
    139 H64        -6.9970    0.4950    1.8030 hc        1 MOL      0.097353
    140 H65        -5.8230    1.7750    1.3160 hc        1 MOL      0.097353
    141 H66        -7.3640    1.3890    0.4390 hc        1 MOL      0.097353
    142 N13        -6.9560    0.0880   -2.1340 n         1 MOL     -0.604406
    143 C46        -8.1860   -0.5540   -1.6950 c3        1 MOL      0.208726
    144 C47        -9.4520   -0.2150   -2.5930 c         1 MOL      0.496446
    145 O19        -9.3070   -0.2950   -3.8160 o         1 MOL     -0.546444
    146 C48        -7.9780   -2.0590   -1.7030 c3        1 MOL     -0.189503
    147 H67        -6.8850    0.3210   -3.1150 hn        1 MOL      0.339818
    148 H68        -8.4440   -0.2570   -0.6860 h1        1 MOL     -0.031856
    149 H69        -8.7700   -2.5180   -1.1030 hc        1 MOL      0.052880
    150 H70        -8.1300   -2.3560   -2.7460 hc        1 MOL      0.052880
    151 H71        -6.9850   -2.3630   -1.3510 hc        1 MOL      0.052880
    152 N14       -10.5390    0.2600   -2.1200 n         1 MOL     -0.425981
    153 C49       -11.0000    0.2270   -0.6920 c3        1 MOL      0.030457
    154 C50       -10.2760    1.2780    0.2080 c         1 MOL      0.364146
    155 O20        -9.8490    0.8840    1.2870 o         1 MOL     -0.524176
    156 C51       -12.5030    0.3960   -0.5590 c3        1 MOL     -0.061968
    157 C52       -13.0790    0.2090    0.8470 c3        1 MOL     -0.115551
    158 C53       -14.6190    0.3280    0.9060 c         1 MOL      0.589377
    159 O21       -15.1050    1.4930    0.9370 o         1 MOL     -0.637526
    160 O22       -15.2900   -0.7580    0.6210 o         1 MOL     -0.637526
    161 H72       -11.2830    0.4300   -2.7770 hn        1 MOL      0.283431
    162 H73       -10.8030   -0.7280   -0.2010 h1        1 MOL      0.105542
    163 H74       -12.9500   -0.3640   -1.2030 hc        1 MOL      0.055892
    164 H75       -12.6890    1.4490   -0.7680 hc        1 MOL      0.055892
    165 H76       -12.6470    0.8800    1.5910 hc        1 MOL      0.023151
    166 H77       -12.9140   -0.8160    1.1830 hc        1 MOL      0.023151
    167 N15        -9.9950    2.4850   -0.2540 n         1 MOL     -0.127296
    168 C54        -9.3260    3.6150    0.3710 c3        1 MOL     -0.152507
    169 H78        -8.8660    3.2920    1.3050 h1        1 MOL      0.084074
    170 H79        -8.5570    3.9980   -0.2990 h1        1 MOL      0.084074
    171 H80       -10.0540    4.4000    0.5780 h1        1 MOL      0.084074
    172 H81       -10.4120    2.6460   -1.1540 hn        1 MOL      0.188848
    173 Ca1         3.0350    0.4150   -1.1190 Ca        1 MOL      1.740076
    174 O23         3.7580    2.2030   -3.1740 oh        1 MOL     -0.815859
    175 H82         3.4270    2.3020   -4.0730 ho        1 MOL      0.409385
    176 H83         4.6680    2.4820   -3.2220 ho        1 MOL      0.409385
    177 O24         1.1920   -1.9260   -1.9640 oh        1 MOL     -0.815859
    178 H84         0.3330   -2.0620   -2.3630 ho        1 MOL      0.409385
    179 H85         1.8090   -1.9620   -2.6950 ho        1 MOL      0.409385
    180 O25         0.7760    1.7720   -2.1890 oh        1 MOL     -0.815859
    181 H86         1.1720    2.4960   -2.6780 ho        1 MOL      0.409385
    182 H87         0.0870    2.1860   -1.6690 ho        1 MOL      0.409385
@<TRIPOS>BOND
     1    1    2 1   
     2    1    4 1   
     3    1    5 1   
     4    1    6 1   
     5    2    3 2   
     6    2    7 1   
     7    7    8 1   
     8    7   15 1   
     9    8    9 1   
    10    8   11 1   
    11    8   16 1   
    12    9   10 2   
    13    9   19 1   
    14   11   12 1   
    15   11   17 1   
    16   11   18 1   
    17   12   13 1   
    18   12   14 1   
    19   19   20 1   
    20   19   28 1   
    21   20   21 1   
    22   20   23 1   
    23   20   29 1   
    24   21   22 2   
    25   21   41 1   
    26   23   24 1   
    27   23   30 1   
    28   23   31 1   
    29   24   25 1   
    30   24   32 1   
    31   24   33 1   
    32   25   26 1   
    33   25   34 1   
    34   25   35 1   
    35   26   27 1   
    36   26   36 1   
    37   26   37 1   
    38   27   38 1   
    39   27   39 1   
    40   27   40 1   
    41   41   42 1   
    42   41   49 1   
    43   42   43 1   
    44   42   45 1   
    45   42   50 1   
    46   43   44 2   
    47   43   53 1   
    48   45   46 1   
    49   45   51 1   
    50   45   52 1   
    51   46   47 1   
    52   46   48 1   
    53   53   54 1   
    54   53   57 1   
    55   54   55 1   
    56   54   58 1   
    57   54   59 1   
    58   55   56 2   
    59   55   60 1   
    60   60   61 1   
    61   60   68 1   
    62   61   62 1   
    63   61   64 1   
    64   61   69 1   
    65   62   63 2   
    66   62   74 1   
    67   64   65 1   
    68   64   70 1   
    69   64   71 1   
    70   65   66 1   
    71   65   67 2   
    72   66   72 1   
    73   66   73 1   
    74   74   75 1   
    75   74   78 1   
    76   75   76 1   
    77   75   79 1   
    78   75   80 1   
    79   76   77 2   
    80   76   81 1   
    81   81   82 1   
    82   81   93 1   
    83   82   83 1   
    84   82   85 1   
    85   82   94 1   
    86   83   84 2   
    87   83  102 1   
    88   85   86 1   
    89   85   95 1   
    90   85   96 1   
    91   86   87 ar  
    92   86   88 ar  
    93   87   89 ar  
    94   87   97 1   
    95   88   90 ar  
    96   88   98 1   
    97   89   91 ar  
    98   89   99 1   
    99   90   91 ar  
   100   90  100 1   
   101   91   92 1   
   102   92  101 1   
   103  102  103 1   
   104  102  110 1   
   105  103  104 1   
   106  103  106 1   
   107  103  111 1   
   108  104  105 2   
   109  104  121 1   
   110  106  107 1   
   111  106  108 1   
   112  106  112 1   
   113  107  109 1   
   114  107  113 1   
   115  107  114 1   
   116  108  115 1   
   117  108  116 1   
   118  108  117 1   
   119  109  118 1   
   120  109  119 1   
   121  109  120 1   
   122  121  122 1   
   123  121  127 1   
   124  122  123 1   
   125  122  125 1   
   126  122  128 1   
   127  123  124 2   
   128  123  132 1   
   129  125  126 1   
   130  125  129 1   
   131  125  130 1   
   132  126  131 1   
   133  132  133 1   
   134  132  137 1   
   135  133  134 1   
   136  133  136 1   
   137  133  138 1   
   138  134  135 2   
   139  134  142 1   
   140  136  139 1   
   141  136  140 1   
   142  136  141 1   
   143  142  143 1   
   144  142  147 1   
   145  143  144 1   
   146  143  146 1   
   147  143  148 1   
   148  144  145 2   
   149  144  152 1   
   150  146  149 1   
   151  146  150 1   
   152  146  151 1   
   153  152  153 1   
   154  152  161 1   
   155  153  154 1   
   156  153  156 1   
   157  153  162 1   
   158  154  155 2   
   159  154  167 1   
   160  156  157 1   
   161  156  163 1   
   162  156  164 1   
   163  157  158 1   
   164  157  165 1   
   165  157  166 1   
   166  158  159 1   
   167  158  160 1   
   168  167  168 1   
   169  167  172 1   
   170  168  169 1   
   171  168  170 1   
   172  168  171 1   
   173  174  175 1   
   174  174  176 1   
   175  177  178 1   
   176  177  179 1   
   177  180  181 1   
   178  180  182 1   
@<TRIPOS>SUBSTRUCTURE
     1 MOL         1 TEMP              0 ****  ****    0 ROOT
