@<TRIPOS>MOLECULE
MOL
  189   185     1     0     0
SMALL
resp


@<TRIPOS>ATOM
      1 C1          4.7360   -4.9820    2.9730 c3        1 MOL     -0.442097
      2 C2          5.3170   -3.9810    1.9020 c         1 MOL      0.633797
      3 O1          4.5610   -3.5170    1.0800 o         1 MOL     -0.523919
      4 H1          4.1380   -5.7430    2.4710 hc        1 MOL      0.124820
      5 H2          5.5560   -5.4600    3.5070 hc        1 MOL      0.124820
      6 H3          4.1090   -4.4370    3.6780 hc        1 MOL      0.124820
      7 N1          6.6220   -3.7090    1.8640 n         1 MOL     -0.561235
      8 C3          7.2860   -2.5130    1.3040 c3        1 MOL      0.254955
      9 C4          6.4080   -1.2660    1.3400 c         1 MOL      0.214361
     10 O2          5.8580   -0.8580    0.3510 o         1 MOL     -0.470526
     11 C5          7.8720   -2.8020   -0.1400 c3        1 MOL     -0.214562
     12 C6          7.2760   -3.9350   -0.9650 c         1 MOL      0.827539
     13 O3          6.2640   -3.7630   -1.6530 o         1 MOL     -0.750333
     14 O4          7.8120   -5.0270   -0.9740 o         1 MOL     -0.750333
     15 H4          7.2000   -4.1330    2.5740 hn        1 MOL      0.300962
     16 H5          8.1410   -2.2670    1.9200 h1        1 MOL      0.040868
     17 H6          8.8920   -3.1140    0.0740 hc        1 MOL      0.027700
     18 H7          7.9360   -1.9510   -0.8190 hc        1 MOL      0.027700
     19 N2          6.2940   -0.6500    2.5500 n         1 MOL     -0.342849
     20 C7          5.5280    0.5710    2.8790 c3        1 MOL      0.147714
     21 C8          6.1650    1.8020    2.2200 c         1 MOL      0.379241
     22 O5          6.6730    2.6040    2.9220 o         1 MOL     -0.553077
     23 C9          4.0000    0.3660    2.7890 c3        1 MOL      0.153008
     24 C10         3.1260    1.5090    3.3380 c3        1 MOL      0.097672
     25 C11         3.5330   -0.9450    3.5000 c3        1 MOL     -0.279679
     26 C12         3.4260    1.8900    4.7860 c3        1 MOL     -0.277604
     27 H8          6.9320   -1.1310    3.1650 hn        1 MOL      0.219787
     28 H9          5.7530    0.7370    3.9370 h1        1 MOL      0.041105
     29 H10         3.6490    0.2140    1.7620 hc        1 MOL     -0.117029
     30 H11         2.0430    1.4340    3.2310 hc        1 MOL      0.034686
     31 H12         3.4520    2.3720    2.7520 hc        1 MOL      0.034686
     32 H13         2.4740   -1.0090    3.7460 hc        1 MOL      0.057913
     33 H14         3.7190   -1.7210    2.7580 hc        1 MOL      0.057913
     34 H15         4.1590   -1.1500    4.3640 hc        1 MOL      0.057913
     35 H16         4.2800    2.5680    4.9220 hc        1 MOL      0.044263
     36 H17         2.5080    2.3520    5.1590 hc        1 MOL      0.044263
     37 H18         3.7380    0.9840    5.3020 hc        1 MOL      0.044263
     38 N3          6.0760    1.9640    0.8690 n         1 MOL     -0.016440
     39 C13         6.7720    3.0030    0.0770 c3        1 MOL     -0.108221
     40 C14         6.0550    4.3940    0.0550 c         1 MOL      0.518360
     41 O6          6.7060    5.3880    0.1690 o         1 MOL     -0.525426
     42 C15         7.2190    2.4550   -1.2710 c3        1 MOL     -0.377131
     43 C16         8.0830    3.5130   -1.9990 c         1 MOL      0.772566
     44 O7          7.5020    4.1860   -2.9040 o         1 MOL     -0.725310
     45 O8          9.3020    3.6730   -1.8260 o         1 MOL     -0.725310
     46 H19         5.5760    1.2320    0.3640 hn        1 MOL      0.154174
     47 H20         7.7570    3.1400    0.5160 h1        1 MOL      0.088996
     48 H21         6.3270    2.2500   -1.8730 hc        1 MOL      0.131219
     49 H22         7.9000    1.6010   -1.1970 hc        1 MOL      0.131219
     50 N4          4.7910    4.4840   -0.1940 n         1 MOL     -0.551938
     51 C17         3.9130    3.4560   -0.7330 c3        1 MOL      0.673819
     52 C18         2.7690    4.0880   -1.6170 c         1 MOL      0.408921
     53 O9          2.4610    5.2730   -1.4550 o         1 MOL     -0.543147
     54 H23         4.4460    5.4370   -0.1750 hn        1 MOL      0.281748
     55 H24         3.5280    2.8450    0.0820 h1        1 MOL     -0.176920
     56 H25         4.4780    2.8160   -1.4170 h1        1 MOL     -0.176920
     57 N5          2.0960    3.2870   -2.5150 n         1 MOL     -0.424061
     58 C19         2.3950    1.9210   -2.8810 c3        1 MOL     -0.067800
     59 C20         2.6430    0.9260   -1.6870 c         1 MOL      0.044799
     60 O10         3.6970    0.2350   -1.6310 o         1 MOL     -0.377865
     61 C21         3.5380    2.0210   -3.9120 c3        1 MOL     -0.113546
     62 C22         3.8470    0.7230   -4.6240 c         1 MOL      0.721187
     63 O11         3.1050   -0.2860   -4.4540 o         1 MOL     -0.712839
     64 O12         4.8140    0.6790   -5.3750 o         1 MOL     -0.712839
     65 H26         1.3180    3.7020   -2.9940 hn        1 MOL      0.289316
     66 H27         1.5340    1.6340   -3.4860 h1        1 MOL      0.102901
     67 H28         4.4100    2.3860   -3.3730 hc        1 MOL      0.062397
     68 H29         3.2160    2.6280   -4.7630 hc        1 MOL      0.062397
     69 N6          1.6780    0.8840   -0.7420 n         1 MOL      0.143690
     70 C23         0.3130    1.3520   -0.7880 c3        1 MOL     -0.052665
     71 C24         0.0370    2.6870   -0.1020 c         1 MOL      0.506031
     72 O13         0.7910    3.1870    0.7310 o         1 MOL     -0.506145
     73 H30         1.8260    0.1320   -0.0730 hn        1 MOL      0.083943
     74 H31        -0.1550    0.5270   -0.2580 h1        1 MOL      0.042578
     75 H32        -0.0590    1.3050   -1.8110 h1        1 MOL      0.042578
     76 N7         -1.1070    3.3280   -0.5530 n         1 MOL     -0.516591
     77 C25        -1.5610    4.6150    0.1190 c3        1 MOL      0.052144
     78 C26        -2.2080    4.3810    1.4910 c         1 MOL      0.410249
     79 O14        -2.3690    5.3510    2.2070 o         1 MOL     -0.467695
     80 C27        -2.4800    5.3030   -0.8640 c3        1 MOL      0.075495
     81 C28        -2.4780    6.8240   -0.6240 c3        1 MOL     -0.144690
     82 C29        -3.5850    7.4730   -1.4270 c         1 MOL      0.632543
     83 N8         -3.4460    7.6190   -2.7020 n         1 MOL     -0.821170
     84 O15        -4.4980    7.9650   -0.8100 o         1 MOL     -0.560963
     85 H33        -1.6350    2.9410   -1.3160 hn        1 MOL      0.279120
     86 H34        -0.6990    5.2670    0.2710 h1        1 MOL      0.132007
     87 H35        -3.4090    4.7410   -0.9080 hc        1 MOL     -0.020353
     88 H36        -1.9900    5.1800   -1.8250 hc        1 MOL     -0.020353
     89 H37        -1.4770    7.1970   -0.8550 hc        1 MOL      0.058676
     90 H38        -2.6390    6.9880    0.4390 hc        1 MOL      0.058676
     91 H39        -2.5600    7.3920   -3.1270 hn        1 MOL      0.371987
     92 H40        -4.0250    8.3820   -3.0550 hn        1 MOL      0.371987
     93 N9         -2.6290    3.1150    1.8300 n         1 MOL     -0.278148
     94 C30        -3.0900    2.7280    3.1230 c3        1 MOL     -0.166989
     95 C31        -4.5290    2.1330    3.0950 c         1 MOL      0.615938
     96 O16        -5.0240    1.9510    4.1880 o         1 MOL     -0.542699
     97 C32        -2.1370    1.7880    3.9430 c3        1 MOL      0.052728
     98 C33        -0.6800    2.3240    4.0690 c3        1 MOL     -0.069109
     99 C34        -2.1210    0.4050    3.2470 c3        1 MOL     -0.069109
    100 H41        -2.5170    2.4290    1.0880 hn        1 MOL      0.216222
    101 H42        -3.2220    3.6000    3.7620 h1        1 MOL      0.132260
    102 H43        -2.5070    1.4840    4.9240 hc        1 MOL      0.028634
    103 H44        -0.5980    3.2810    4.5780 hc        1 MOL      0.024288
    104 H45        -0.1010    1.5400    4.5650 hc        1 MOL      0.024288
    105 H46        -0.2480    2.4240    3.0690 hc        1 MOL      0.024288
    106 H47        -1.6180    0.4970    2.2800 hc        1 MOL      0.024288
    107 H48        -1.5560   -0.2720    3.8770 hc        1 MOL      0.024288
    108 H49        -3.0900   -0.0720    3.0830 hc        1 MOL      0.024288
    109 N10        -5.1280    1.8510    1.9440 n         1 MOL     -0.475128
    110 C35        -6.4730    1.2900    1.8830 c3        1 MOL      0.077493
    111 C36        -6.5970   -0.1950    1.4860 c         1 MOL      0.692697
    112 O17        -7.3450   -0.8890    2.1810 o         1 MOL     -0.571539
    113 C37        -7.3530    2.2000    0.9330 c3        1 MOL     -0.179757
    114 C38        -7.3950    3.6670    1.2060 c         1 MOL      0.649257
    115 N11        -7.0740    4.5290    0.3570 n         1 MOL     -0.768987
    116 O18        -7.7230    4.1220    2.2940 o         1 MOL     -0.573436
    117 H50        -4.6060    2.1300    1.1210 hn        1 MOL      0.256456
    118 H51        -6.9150    1.4380    2.8650 h1        1 MOL      0.066527
    119 H52        -8.3730    1.8170    0.9990 hc        1 MOL      0.050531
    120 H53        -7.0510    2.0490   -0.1040 hc        1 MOL      0.050531
    121 H54        -6.7110    4.2980   -0.5580 hn        1 MOL      0.367730
    122 H55        -7.1440    5.5000    0.6560 hn        1 MOL      0.367730
    123 N12        -5.9360   -0.5460    0.4050 n         1 MOL     -0.650652
    124 C39        -6.1230   -1.8780   -0.2870 c3        1 MOL      0.097385
    125 C40        -4.7760   -2.6990   -0.4640 c         1 MOL      0.580761
    126 O19        -3.6580   -2.1560   -0.3870 o         1 MOL     -0.573210
    127 C41        -6.6960   -1.6930   -1.6720 c3        1 MOL      0.195568
    128 C42        -7.9700   -0.8580   -1.8190 ca        1 MOL     -0.076088
    129 C43        -9.2030   -1.4400   -1.4850 ca        1 MOL     -0.072728
    130 C44        -7.9960    0.3840   -2.4050 ca        1 MOL     -0.072728
    131 C45       -10.4370   -0.7320   -1.7600 ca        1 MOL     -0.310001
    132 C46        -9.1340    1.1510   -2.5860 ca        1 MOL     -0.310001
    133 C47       -10.3810    0.5930   -2.2460 ca        1 MOL      0.376040
    134 O20       -11.4570    1.3750   -2.4320 oh        1 MOL     -0.520933
    135 H56        -5.3170    0.0810   -0.0910 hn        1 MOL      0.305100
    136 H57        -6.8420   -2.4450    0.2910 h1        1 MOL      0.073783
    137 H58        -7.0260   -2.6640   -2.0430 hc        1 MOL     -0.017085
    138 H59        -5.9770   -1.3860   -2.4300 hc        1 MOL     -0.017085
    139 H60        -9.2320   -2.4470   -1.0980 ha        1 MOL      0.100976
    140 H61        -6.9970    0.7660   -2.6060 ha        1 MOL      0.100976
    141 H62       -11.3460   -1.2610   -1.5340 ha        1 MOL      0.141231
    142 H63        -9.1470    2.2100   -2.7880 ha        1 MOL      0.141231
    143 H64       -12.2670    0.9970   -2.0940 ho        1 MOL      0.382415
    144 N13        -4.8800   -3.9990   -0.6450 n         1 MOL     -0.627384
    145 C48        -3.8570   -4.9080   -1.0250 c3        1 MOL      0.116832
    146 C49        -2.5850   -5.0970   -0.1460 c         1 MOL      0.391171
    147 O21        -1.9070   -6.0790   -0.3280 o         1 MOL     -0.471528
    148 C50        -3.5350   -4.7240   -2.5160 c3        1 MOL      0.056543
    149 C51        -4.7620   -4.7390   -3.3580 c3        1 MOL     -0.082933
    150 C52        -5.5630   -6.0490   -3.2260 c         1 MOL      0.674526
    151 O22        -6.7280   -6.0060   -2.7350 o         1 MOL     -0.717946
    152 O23        -5.0210   -7.0900   -3.5950 o         1 MOL     -0.717946
    153 H65        -5.8240   -4.3410   -0.6210 hn        1 MOL      0.295595
    154 H66        -4.3140   -5.8850   -0.9120 h1        1 MOL      0.112732
    155 H67        -2.9830   -5.6260   -2.7750 hc        1 MOL      0.015908
    156 H68        -2.8990   -3.8940   -2.8070 hc        1 MOL      0.015908
    157 H69        -4.4660   -4.6450   -4.3990 hc        1 MOL     -0.019214
    158 H70        -5.4420   -3.9010   -3.1860 hc        1 MOL     -0.019214
    159 N14        -2.2300   -4.1560    0.7940 n         1 MOL     -0.404556
    160 C53        -1.0470   -4.2260    1.6880 c3        1 MOL     -0.042702
    161 C54        -1.3310   -4.9990    3.0740 c         1 MOL      0.532788
    162 O24        -0.4850   -5.7640    3.5740 o         1 MOL     -0.542520
    163 C55        -0.5160   -2.8830    2.0640 c3        1 MOL     -0.050579
    164 C56        -0.0930   -1.9250    0.8870 c3        1 MOL      0.541801
    165 C57         1.1110   -2.4120    0.1340 c         1 MOL      0.288317
    166 O25         1.0640   -3.3530   -0.6970 o         1 MOL     -0.534712
    167 O26         2.1890   -1.8120    0.2870 o         1 MOL     -0.534712
    168 H71        -2.8090   -3.3340    0.8450 hn        1 MOL      0.288744
    169 H72        -0.2500   -4.7760    1.1710 h1        1 MOL      0.128353
    170 H73         0.3070   -2.9870    2.7610 hc        1 MOL     -0.008756
    171 H74        -1.2830   -2.3510    2.6220 hc        1 MOL     -0.008756
    172 H75         0.1570   -0.9870    1.3760 hc        1 MOL     -0.165888
    173 H76        -0.8700   -1.7720    0.1480 hc        1 MOL     -0.165888
    174 N15        -2.5430   -4.7770    3.6490 n         1 MOL     -0.291311
    175 C58        -3.0720   -5.4800    4.7800 c3        1 MOL     -0.317722
    176 H77        -3.5790   -6.3840    4.4410 h1        1 MOL      0.124185
    177 H78        -2.2580   -5.7520    5.4530 h1        1 MOL      0.124185
    178 H79        -3.7810   -4.8420    5.3060 h1        1 MOL      0.124185
    179 H80        -3.0740   -4.0280    3.2320 hn        1 MOL      0.253576
    180 Ca1         4.0460   -2.4970   -1.2480 Ca        1 MOL      1.703364
    181 O27         5.5880   -1.7090   -3.3740 oh        1 MOL     -0.857718
    182 H81         6.0920   -0.9040   -3.3740 ho        1 MOL      0.410880
    183 H82         5.4820   -1.9320   -4.3000 ho        1 MOL      0.410880
    184 O28         2.7800   -2.6830   -3.4580 oh        1 MOL     -0.857718
    185 H83         2.8720   -1.8660   -3.9430 ho        1 MOL      0.410880
    186 H84         2.2530   -3.2430   -4.0230 ho        1 MOL      0.410880
    187 O29         3.6060   -5.1830   -1.5200 oh        1 MOL     -0.857718
    188 H85         4.3510   -5.6910   -1.1840 ho        1 MOL      0.410880
    189 H86         3.2660   -5.7130   -2.2370 ho        1 MOL      0.410880
@<TRIPOS>BOND
     1    1    2 1   
     2    1    4 1   
     3    1    5 1   
     4    1    6 1   
     5    2    3 2   
     6    2    7 1   
     7    7    8 1   
     8    7   15 1   
     9    8    9 1   
    10    8   11 1   
    11    8   16 1   
    12    9   10 2   
    13    9   19 1   
    14   11   12 1   
    15   11   17 1   
    16   11   18 1   
    17   12   13 1   
    18   12   14 1   
    19   19   20 1   
    20   19   27 1   
    21   20   21 1   
    22   20   23 1   
    23   20   28 1   
    24   21   22 2   
    25   21   38 1   
    26   23   24 1   
    27   23   25 1   
    28   23   29 1   
    29   24   26 1   
    30   24   30 1   
    31   24   31 1   
    32   25   32 1   
    33   25   33 1   
    34   25   34 1   
    35   26   35 1   
    36   26   36 1   
    37   26   37 1   
    38   38   39 1   
    39   38   46 1   
    40   39   40 1   
    41   39   42 1   
    42   39   47 1   
    43   40   41 2   
    44   40   50 1   
    45   42   43 1   
    46   42   48 1   
    47   42   49 1   
    48   43   44 1   
    49   43   45 1   
    50   50   51 1   
    51   50   54 1   
    52   51   52 1   
    53   51   55 1   
    54   51   56 1   
    55   52   53 2   
    56   52   57 1   
    57   57   58 1   
    58   57   65 1   
    59   58   59 1   
    60   58   61 1   
    61   58   66 1   
    62   59   60 2   
    63   59   69 1   
    64   61   62 1   
    65   61   67 1   
    66   61   68 1   
    67   62   63 1   
    68   62   64 1   
    69   69   70 1   
    70   69   73 1   
    71   70   71 1   
    72   70   74 1   
    73   70   75 1   
    74   71   72 2   
    75   71   76 1   
    76   76   77 1   
    77   76   85 1   
    78   77   78 1   
    79   77   80 1   
    80   77   86 1   
    81   78   79 2   
    82   78   93 1   
    83   80   81 1   
    84   80   87 1   
    85   80   88 1   
    86   81   82 1   
    87   81   89 1   
    88   81   90 1   
    89   82   83 1   
    90   82   84 2   
    91   83   91 1   
    92   83   92 1   
    93   93   94 1   
    94   93  100 1   
    95   94   95 1   
    96   94   97 1   
    97   94  101 1   
    98   95   96 2   
    99   95  109 1   
   100   97   98 1   
   101   97   99 1   
   102   97  102 1   
   103   98  103 1   
   104   98  104 1   
   105   98  105 1   
   106   99  106 1   
   107   99  107 1   
   108   99  108 1   
   109  109  110 1   
   110  109  117 1   
   111  110  111 1   
   112  110  113 1   
   113  110  118 1   
   114  111  112 2   
   115  111  123 1   
   116  113  114 1   
   117  113  119 1   
   118  113  120 1   
   119  114  115 1   
   120  114  116 2   
   121  115  121 1   
   122  115  122 1   
   123  123  124 1   
   124  123  135 1   
   125  124  125 1   
   126  124  127 1   
   127  124  136 1   
   128  125  126 2   
   129  125  144 1   
   130  127  128 1   
   131  127  137 1   
   132  127  138 1   
   133  128  129 ar  
   134  128  130 ar  
   135  129  131 ar  
   136  129  139 1   
   137  130  132 ar  
   138  130  140 1   
   139  131  133 ar  
   140  131  141 1   
   141  132  133 ar  
   142  132  142 1   
   143  133  134 1   
   144  134  143 1   
   145  144  145 1   
   146  144  153 1   
   147  145  146 1   
   148  145  148 1   
   149  145  154 1   
   150  146  147 2   
   151  146  159 1   
   152  148  149 1   
   153  148  155 1   
   154  148  156 1   
   155  149  150 1   
   156  149  157 1   
   157  149  158 1   
   158  150  151 1   
   159  150  152 1   
   160  159  160 1   
   161  159  168 1   
   162  160  161 1   
   163  160  163 1   
   164  160  169 1   
   165  161  162 2   
   166  161  174 1   
   167  163  164 1   
   168  163  170 1   
   169  163  171 1   
   170  164  165 1   
   171  164  172 1   
   172  164  173 1   
   173  165  166 1   
   174  165  167 1   
   175  174  175 1   
   176  174  179 1   
   177  175  176 1   
   178  175  177 1   
   179  175  178 1   
   180  181  182 1   
   181  181  183 1   
   182  184  185 1   
   183  184  186 1   
   184  187  188 1   
   185  187  189 1   
@<TRIPOS>SUBSTRUCTURE
     1 MOL         1 TEMP              0 ****  ****    0 ROOT
