@<TRIPOS>MOLECULE
MOL
  181   177     1     0     0
SMALL
resp


@<TRIPOS>ATOM
      1 C1         -2.2610   -6.8990   -2.3970 c3        1 MOL     -0.399821
      2 C2         -3.5520   -6.7390   -1.5080 c         1 MOL      0.663437
      3 O1         -3.5990   -7.3320   -0.4050 o         1 MOL     -0.578623
      4 H1         -2.0000   -7.9560   -2.4720 hc        1 MOL      0.093190
      5 H2         -2.4530   -6.5020   -3.3940 hc        1 MOL      0.093190
      6 H3         -1.4350   -6.3530   -1.9410 hc        1 MOL      0.093190
      7 N1         -4.5040   -5.9920   -2.0370 n         1 MOL     -0.512391
      8 C3         -5.7770   -5.8190   -1.2880 c3        1 MOL      0.192539
      9 C4         -5.6110   -4.6020   -0.3060 c         1 MOL      0.514576
     10 O2         -5.6910   -3.4190   -0.7240 o         1 MOL     -0.536475
     11 C5         -6.9210   -5.4540   -2.2560 c3        1 MOL     -0.303520
     12 C6         -8.1880   -5.4390   -1.3580 c         1 MOL      0.713312
     13 O3         -8.4460   -6.5240   -0.7510 o         1 MOL     -0.720325
     14 O4         -9.0600   -4.5100   -1.3350 o         1 MOL     -0.720325
     15 H4         -4.3660   -5.4790   -2.8970 hn        1 MOL      0.310217
     16 H5         -6.0160   -6.6670   -0.6350 h1        1 MOL      0.007428
     17 H6         -6.8200   -6.2160   -3.0230 hc        1 MOL      0.048207
     18 H7         -6.7360   -4.4700   -2.6740 hc        1 MOL      0.048207
     19 N2         -5.4980   -4.9290    0.9710 n         1 MOL     -0.619362
     20 C7         -5.2830   -3.9340    1.9970 c3        1 MOL      0.561406
     21 C8         -3.8000   -3.5320    2.0410 c         1 MOL      0.325847
     22 O5         -2.9510   -4.3630    1.8550 o         1 MOL     -0.534005
     23 C9         -5.7110   -4.4860    3.3760 c3        1 MOL     -0.276990
     24 H8         -5.4670   -5.9220    1.1840 hn        1 MOL      0.336045
     25 H9         -5.9140   -3.1020    1.7120 h1        1 MOL     -0.032339
     26 H10        -6.7650   -4.7310    3.3100 hc        1 MOL      0.061246
     27 H11        -5.1790   -5.4170    3.5910 hc        1 MOL      0.061246
     28 H12        -5.5740   -3.7290    4.1460 hc        1 MOL      0.061246
     29 N3         -3.4710   -2.2980    2.3580 n         1 MOL     -0.264734
     30 C10        -4.3540   -1.2250    2.8860 c3        1 MOL     -0.118789
     31 C11        -4.4610   -0.0020    1.9310 c         1 MOL      0.568163
     32 O6         -3.4980    0.4830    1.3990 o         1 MOL     -0.610008
     33 C12        -3.8340   -0.7520    4.3110 c3        1 MOL     -0.076607
     34 C13        -2.3650   -0.2200    4.4160 c         1 MOL      0.585927
     35 O7         -2.0080    0.1440    5.5600 o         1 MOL     -0.648676
     36 O8         -1.5860   -0.1770    3.4530 o         1 MOL     -0.648676
     37 H13        -2.5300   -2.0490    2.6030 hn        1 MOL      0.263861
     38 H14        -5.3520   -1.6610    2.9640 h1        1 MOL      0.023546
     39 H15        -3.9190   -1.6240    4.9770 hc        1 MOL      0.018595
     40 H16        -4.5650   -0.0420    4.6820 hc        1 MOL      0.018595
     41 N4         -5.7140    0.4410    1.7770 n         1 MOL     -0.414859
     42 C14        -6.0970    1.5780    0.9300 c3        1 MOL     -0.210920
     43 C15        -5.9710    1.2160   -0.5870 c         1 MOL      0.780672
     44 O9         -6.0720    0.0580   -0.9450 o         1 MOL     -0.506053
     45 H17        -6.4070   -0.1380    2.2400 hn        1 MOL      0.322577
     46 H18        -5.4220    2.4050    1.1610 h1        1 MOL      0.110830
     47 H19        -7.0930    1.9060    1.2270 h1        1 MOL      0.110830
     48 N5         -5.6630    2.1740   -1.4060 n         1 MOL     -0.638231
     49 C16        -5.7630    3.6630   -1.2910 c3        1 MOL      0.202055
     50 C17        -4.5430    4.3510   -1.9460 c         1 MOL      0.607459
     51 O10        -3.7030    3.7530   -2.5920 o         1 MOL     -0.485502
     52 C18        -7.0070    4.1200   -2.0680 c3        1 MOL     -0.551808
     53 C19        -8.2670    3.6970   -1.4160 c         1 MOL      0.771074
     54 N6         -8.4580    3.8710   -0.1420 n         1 MOL     -0.830107
     55 O11        -9.0960    3.0600   -2.0440 o         1 MOL     -0.535208
     56 H20        -5.4030    1.8700   -2.3360 hn        1 MOL      0.323354
     57 H21        -5.6760    3.8870   -0.2260 h1        1 MOL     -0.054658
     58 H22        -6.9370    3.5320   -2.9830 hc        1 MOL      0.162162
     59 H23        -6.9740    5.1890   -2.2700 hc        1 MOL      0.162162
     60 H24        -7.7210    4.2930    0.4090 hn        1 MOL      0.375613
     61 H25        -9.3490    3.6860    0.2990 hn        1 MOL      0.375613
     62 N7         -4.3650    5.6730   -1.7920 n         1 MOL     -0.399776
     63 C20        -3.3350    6.4330   -2.5440 c3        1 MOL     -0.229049
     64 C21        -1.8760    6.2590   -2.2540 c         1 MOL      0.633678
     65 O12        -1.0190    6.5900   -3.0530 o         1 MOL     -0.565151
     66 H26        -5.0550    6.1850   -1.2600 hn        1 MOL      0.275470
     67 H27        -3.5780    7.4900   -2.4040 h1        1 MOL      0.124724
     68 H28        -3.4330    6.2280   -3.6050 h1        1 MOL      0.124724
     69 N8         -1.5280    5.6890   -1.1020 n         1 MOL     -0.450758
     70 C22        -0.2530    5.8380   -0.4700 c3        1 MOL      0.098225
     71 C23         0.5580    4.4970   -0.3860 c         1 MOL      0.607421
     72 O13         0.1190    3.4250    0.1310 o         1 MOL     -0.714532
     73 C24        -0.4070    6.5810    0.8670 c3        1 MOL      0.275229
     74 C25         0.9860    6.6960    1.4560 c3        1 MOL     -0.460780
     75 O14        -0.9030    7.8930    0.6290 oh        1 MOL     -0.621409
     76 H29        -2.2880    5.4740   -0.4750 hn        1 MOL      0.240603
     77 H30         0.3810    6.5210   -1.0250 h1        1 MOL      0.103618
     78 H31        -1.1080    6.0060    1.4740 h1        1 MOL     -0.019937
     79 H32        -1.1140    8.2410    1.5000 ho        1 MOL      0.391096
     80 H33         0.9360    7.2960    2.3650 hc        1 MOL      0.135747
     81 H34         1.3640    5.7580    1.8660 hc        1 MOL      0.135747
     82 H35         1.7610    7.1160    0.8170 hc        1 MOL      0.135747
     83 N9          1.7310    4.5680   -0.9910 n         1 MOL     -0.379148
     84 C26         2.6840    3.4750   -1.0370 c3        1 MOL     -0.023402
     85 C27         3.5010    3.3090    0.2770 c         1 MOL      0.278027
     86 O15         4.0920    4.3040    0.7070 o         1 MOL     -0.533057
     87 C28         3.5700    3.6110   -2.2910 c3        1 MOL      0.285048
     88 C29         4.3930    2.3200   -2.5550 c3        1 MOL      0.069576
     89 C30         2.7120    3.8480   -3.5290 c3        1 MOL     -0.389138
     90 C31         5.6300    2.1810   -3.5240 c3        1 MOL     -0.362057
     91 H36         1.9520    5.3300   -1.6030 hn        1 MOL      0.247618
     92 H37         2.1900    2.5090   -1.1770 h1        1 MOL      0.124628
     93 H38         4.2550    4.4520   -2.1800 hc        1 MOL     -0.022754
     94 H39         3.7170    1.4950   -2.7960 hc        1 MOL     -0.003541
     95 H40         4.7660    1.9930   -1.5810 hc        1 MOL     -0.003541
     96 H41         3.3010    3.6150   -4.4140 hc        1 MOL      0.087726
     97 H42         1.8030    3.2520   -3.4120 hc        1 MOL      0.087726
     98 H43         2.4060    4.8850   -3.5220 hc        1 MOL      0.087726
     99 H44         5.2250    2.3740   -4.5210 hc        1 MOL      0.085003
    100 H45         6.4190    2.8840   -3.2640 hc        1 MOL      0.085003
    101 H46         6.0070    1.1690   -3.3470 hc        1 MOL      0.085003
    102 N10         3.6470    2.1320    0.8240 n         1 MOL     -0.266104
    103 C32         4.2880    1.9400    2.1320 c3        1 MOL      0.066610
    104 C33         5.3750    0.8290    2.0900 c         1 MOL      0.460448
    105 O16         5.9650    0.5830    3.1260 o         1 MOL     -0.569675
    106 C34         3.2380    1.6000    3.2270 c3        1 MOL     -0.069682
    107 C35         2.0400    2.4960    3.2440 c         1 MOL      0.919342
    108 O17         0.9470    1.8960    3.1130 o         1 MOL     -0.791005
    109 O18         2.1010    3.7130    3.5300 o         1 MOL     -0.791005
    110 H47         3.2720    1.3410    0.3310 hn        1 MOL      0.289002
    111 H48         4.7750    2.8750    2.4080 h1        1 MOL      0.099378
    112 H49         3.6960    1.7230    4.2180 hc        1 MOL      0.006388
    113 H50         2.9060    0.5710    3.0820 hc        1 MOL      0.006388
    114 N11         5.5280    0.1240    0.9790 n         1 MOL     -0.553940
    115 C36         6.5680   -0.9380    0.7390 c3        1 MOL      0.544775
    116 C37         5.9530   -2.2950    0.3270 c         1 MOL      0.237571
    117 O19         6.2700   -2.8560   -0.7220 o         1 MOL     -0.527124
    118 C38         7.6150   -0.4410   -0.2370 c3        1 MOL     -0.211378
    119 C39         8.9940   -0.8900   -0.1080 ca        1 MOL      0.094319
    120 C40         9.9290   -0.1280    0.6160 ca        1 MOL     -0.172837
    121 C41         9.4280   -2.1570   -0.5630 ca        1 MOL     -0.172837
    122 C42        11.2680   -0.4880    0.7020 ca        1 MOL     -0.095198
    123 C43        10.7980   -2.6280   -0.3790 ca        1 MOL     -0.095198
    124 C44        11.7030   -1.6980    0.1260 ca        1 MOL     -0.160702
    125 H51         4.8040    0.1210    0.2780 hn        1 MOL      0.272225
    126 H52         7.0470   -1.2960    1.6500 h1        1 MOL     -0.042345
    127 H53         7.6140    0.6500   -0.1990 hc        1 MOL      0.068490
    128 H54         7.2720   -0.5830   -1.2660 hc        1 MOL      0.068490
    129 H55         9.5710    0.7810    1.0850 ha        1 MOL      0.118279
    130 H56         8.7280   -2.8180   -1.0660 ha        1 MOL      0.118279
    131 H57        12.0080    0.0810    1.2570 ha        1 MOL      0.102723
    132 H58        11.0920   -3.6140   -0.7250 ha        1 MOL      0.102723
    133 H59        12.7290   -2.0120    0.2970 ha        1 MOL      0.097891
    134 N12         4.9030   -2.7570    1.0430 n         1 MOL      0.013815
    135 C45         4.2090   -4.0250    0.6880 c3        1 MOL     -0.072739
    136 C46         3.3600   -3.9970   -0.6290 c         1 MOL      0.229512
    137 O20         2.8460   -5.0210   -1.0610 o         1 MOL     -0.468450
    138 C47         3.4150   -4.4410    1.9550 c3        1 MOL     -0.061062
    139 C48         4.1620   -3.6560    3.0750 c3        1 MOL     -0.103670
    140 C49         4.4890   -2.3880    2.4010 c3        1 MOL     -0.086299
    141 H60         5.0340   -4.7290    0.6020 h1        1 MOL      0.109167
    142 H61         2.3930   -4.0700    1.9310 hc        1 MOL      0.064888
    143 H62         3.4040   -5.5190    2.0840 hc        1 MOL      0.064888
    144 H63         3.5330   -3.6090    3.9650 hc        1 MOL      0.043481
    145 H64         5.1100   -4.1370    3.3260 hc        1 MOL      0.043481
    146 H65         3.6320   -1.7260    2.4450 h1        1 MOL      0.099786
    147 H66         5.2900   -2.0090    3.0390 h1        1 MOL      0.099786
    148 N13         3.2540   -2.8490   -1.3140 n         1 MOL     -0.005398
    149 C50         2.6990   -2.7310   -2.7070 c3        1 MOL     -0.088800
    150 C51         3.6720   -3.3700   -3.6840 c         1 MOL      0.495512
    151 O21         3.3510   -4.2130   -4.4950 o         1 MOL     -0.551645
    152 C52         2.5570   -1.2470   -3.1100 c3        1 MOL     -0.083629
    153 C53         1.5370   -0.4450   -2.2410 c3        1 MOL     -0.008448
    154 C54         2.0230   -0.0930   -0.8360 c         1 MOL      0.306270
    155 O22         1.1810    0.2730    0.0240 o         1 MOL     -0.577877
    156 O23         3.2270   -0.1430   -0.6650 o         1 MOL     -0.577877
    157 H67         3.5890   -2.0230   -0.8460 hn        1 MOL      0.171757
    158 H68         1.7480   -3.2480   -2.8200 h1        1 MOL      0.093076
    159 H69         2.2250   -1.2800   -4.1540 hc        1 MOL      0.021093
    160 H70         3.5170   -0.7290   -3.1600 hc        1 MOL      0.021093
    161 H71         0.6410   -1.0540   -2.1560 hc        1 MOL      0.041377
    162 H72         1.1680    0.4340   -2.7770 hc        1 MOL      0.041377
    163 N14         4.9390   -3.1070   -3.5400 n         1 MOL     -0.157835
    164 C55         6.0610   -3.5600   -4.3940 c3        1 MOL     -0.247528
    165 H73         6.2910   -4.6010   -4.1680 h1        1 MOL      0.098441
    166 H74         5.7800   -3.4690   -5.4430 h1        1 MOL      0.098441
    167 H75         6.9380   -2.9440   -4.1980 h1        1 MOL      0.098441
    168 H76         5.2230   -2.4680   -2.8090 hn        1 MOL      0.196415
    169 Ca1        -0.7940    1.1590    1.2900 Ca        1 MOL      1.705570
    170 O24        -1.1420   -1.3190    0.3130 oh        1 MOL     -0.733401
    171 H77        -1.9910   -1.4830   -0.0720 ho        1 MOL      0.368402
    172 H78        -0.8940   -2.1440    0.7310 ho        1 MOL      0.368402
    173 O25        -2.0720    2.1350   -1.0240 oh        1 MOL     -0.733401
    174 H79        -2.2880    1.8930   -1.9260 ho        1 MOL      0.368402
    175 H80        -2.4730    2.9960   -0.9090 ho        1 MOL      0.368402
    176 O26        -1.2770    3.6570    2.7690 oh        1 MOL     -0.733401
    177 H81        -1.8240    4.1170    3.4000 ho        1 MOL      0.368402
    178 H82        -0.4020    3.6790    3.1530 ho        1 MOL      0.368402
    179 O27         1.1020   -1.1940    2.2180 oh        1 MOL     -0.733401
    180 H83         1.2700   -1.0590    1.2920 ho        1 MOL      0.368402
    181 H84         0.7320   -2.0750    2.2690 ho        1 MOL      0.368402
@<TRIPOS>BOND
     1    1    2 1   
     2    1    4 1   
     3    1    5 1   
     4    1    6 1   
     5    2    3 2   
     6    2    7 1   
     7    7    8 1   
     8    7   15 1   
     9    8    9 1   
    10    8   11 1   
    11    8   16 1   
    12    9   10 2   
    13    9   19 1   
    14   11   12 1   
    15   11   17 1   
    16   11   18 1   
    17   12   13 1   
    18   12   14 1   
    19   19   20 1   
    20   19   24 1   
    21   20   21 1   
    22   20   23 1   
    23   20   25 1   
    24   21   22 2   
    25   21   29 1   
    26   23   26 1   
    27   23   27 1   
    28   23   28 1   
    29   29   30 1   
    30   29   37 1   
    31   30   31 1   
    32   30   33 1   
    33   30   38 1   
    34   31   32 2   
    35   31   41 1   
    36   33   34 1   
    37   33   39 1   
    38   33   40 1   
    39   34   35 1   
    40   34   36 1   
    41   41   42 1   
    42   41   45 1   
    43   42   43 1   
    44   42   46 1   
    45   42   47 1   
    46   43   44 2   
    47   43   48 1   
    48   48   49 1   
    49   48   56 1   
    50   49   50 1   
    51   49   52 1   
    52   49   57 1   
    53   50   51 2   
    54   50   62 1   
    55   52   53 1   
    56   52   58 1   
    57   52   59 1   
    58   53   54 1   
    59   53   55 2   
    60   54   60 1   
    61   54   61 1   
    62   62   63 1   
    63   62   66 1   
    64   63   64 1   
    65   63   67 1   
    66   63   68 1   
    67   64   65 2   
    68   64   69 1   
    69   69   70 1   
    70   69   76 1   
    71   70   71 1   
    72   70   73 1   
    73   70   77 1   
    74   71   72 2   
    75   71   83 1   
    76   73   74 1   
    77   73   75 1   
    78   73   78 1   
    79   74   80 1   
    80   74   81 1   
    81   74   82 1   
    82   75   79 1   
    83   83   84 1   
    84   83   91 1   
    85   84   85 1   
    86   84   87 1   
    87   84   92 1   
    88   85   86 2   
    89   85  102 1   
    90   87   88 1   
    91   87   89 1   
    92   87   93 1   
    93   88   90 1   
    94   88   94 1   
    95   88   95 1   
    96   89   96 1   
    97   89   97 1   
    98   89   98 1   
    99   90   99 1   
   100   90  100 1   
   101   90  101 1   
   102  102  103 1   
   103  102  110 1   
   104  103  104 1   
   105  103  106 1   
   106  103  111 1   
   107  104  105 2   
   108  104  114 1   
   109  106  107 1   
   110  106  112 1   
   111  106  113 1   
   112  107  108 1   
   113  107  109 1   
   114  114  115 1   
   115  114  125 1   
   116  115  116 1   
   117  115  118 1   
   118  115  126 1   
   119  116  117 2   
   120  116  134 1   
   121  118  119 1   
   122  118  127 1   
   123  118  128 1   
   124  119  120 ar  
   125  119  121 ar  
   126  120  122 ar  
   127  120  129 1   
   128  121  123 ar  
   129  121  130 1   
   130  122  124 ar  
   131  122  131 1   
   132  123  124 ar  
   133  123  132 1   
   134  124  133 1   
   135  134  135 1   
   136  134  140 1   
   137  135  136 1   
   138  135  138 1   
   139  135  141 1   
   140  136  137 2   
   141  136  148 1   
   142  138  139 1   
   143  138  142 1   
   144  138  143 1   
   145  139  140 1   
   146  139  144 1   
   147  139  145 1   
   148  140  146 1   
   149  140  147 1   
   150  148  149 1   
   151  148  157 1   
   152  149  150 1   
   153  149  152 1   
   154  149  158 1   
   155  150  151 2   
   156  150  163 1   
   157  152  153 1   
   158  152  159 1   
   159  152  160 1   
   160  153  154 1   
   161  153  161 1   
   162  153  162 1   
   163  154  155 1   
   164  154  156 1   
   165  163  164 1   
   166  163  168 1   
   167  164  165 1   
   168  164  166 1   
   169  164  167 1   
   170  170  171 1   
   171  170  172 1   
   172  173  174 1   
   173  173  175 1   
   174  176  177 1   
   175  176  178 1   
   176  179  180 1   
   177  179  181 1   
@<TRIPOS>SUBSTRUCTURE
     1 MOL         1 TEMP              0 ****  ****    0 ROOT
