@<TRIPOS>MOLECULE
MOL
  181   177     1     0     0
SMALL
resp


@<TRIPOS>ATOM
      1 C1          0.8850    6.0880   -2.2400 c3        1 MOL     -0.385550
      2 C2          2.1330    6.2570   -1.3450 c         1 MOL      0.718677
      3 O1          2.0250    6.6940   -0.2390 o         1 MOL     -0.597003
      4 H1          1.1790    5.6490   -3.1930 hc        1 MOL      0.094669
      5 H2          0.1680    5.4340   -1.7450 hc        1 MOL      0.094669
      6 H3          0.4280    7.0620   -2.4150 hc        1 MOL      0.094669
      7 N1          3.3090    5.9690   -1.8530 n         1 MOL     -0.649836
      8 C3          4.5250    6.1340   -1.0670 c3        1 MOL      0.391317
      9 C4          4.7820    4.8100   -0.2480 c         1 MOL      0.551450
     10 O2          5.3650    3.8530   -0.7450 o         1 MOL     -0.557600
     11 C5          5.6910    6.5160   -1.9280 c3        1 MOL     -0.232034
     12 C6          7.0320    6.8970   -1.2000 c         1 MOL      0.685837
     13 O3          6.8590    7.7040   -0.2840 o         1 MOL     -0.717952
     14 O4          8.1240    6.3210   -1.4730 o         1 MOL     -0.717952
     15 H4          3.4610    5.5730   -2.7720 hn        1 MOL      0.313915
     16 H5          4.4370    6.9020   -0.2900 h1        1 MOL     -0.023461
     17 H6          5.3830    7.3070   -2.6130 hc        1 MOL     -0.001553
     18 H7          5.8960    5.6400   -2.5410 hc        1 MOL     -0.001553
     19 N2          4.3270    4.8660    1.0200 n         1 MOL     -0.652465
     20 C7          4.3740    3.8050    2.0300 c3        1 MOL      0.592474
     21 C8          3.1910    2.8150    1.7570 c         1 MOL      0.320888
     22 O5          2.0920    3.2840    1.4630 o         1 MOL     -0.512573
     23 C9          4.3510    4.4090    3.4350 c3        1 MOL     -0.489881
     24 H8          3.7550    5.6910    1.1580 hn        1 MOL      0.306064
     25 H9          5.3020    3.2510    1.9940 h1        1 MOL     -0.025595
     26 H10         5.2750    4.9520    3.6300 hc        1 MOL      0.130248
     27 H11         3.5510    5.1550    3.5100 hc        1 MOL      0.130248
     28 H12         4.0680    3.6420    4.1420 hc        1 MOL      0.130248
     29 N3          3.2270    1.5100    2.1690 n         1 MOL     -0.327462
     30 C10         4.3460    0.8400    2.8600 c3        1 MOL     -0.401992
     31 C11         4.9520   -0.3710    2.0790 c         1 MOL      0.543317
     32 O6          4.2940   -1.2890    1.5700 o         1 MOL     -0.485184
     33 C12         3.9730    0.4500    4.2740 c3        1 MOL     -0.008216
     34 C13         2.6540   -0.4200    4.4500 c         1 MOL      0.671552
     35 O7          2.6770   -1.2830    5.3390 o         1 MOL     -0.690350
     36 O8          1.6670   -0.3790    3.6710 o         1 MOL     -0.690350
     37 H13         2.3480    1.0010    2.0660 hn        1 MOL      0.352149
     38 H14         5.1450    1.5520    3.0280 h1        1 MOL      0.126092
     39 H15         3.7690    1.3010    4.9250 hc        1 MOL      0.026855
     40 H16         4.8270   -0.1210    4.6390 hc        1 MOL      0.026855
     41 N4          6.2840   -0.4040    1.9590 n         1 MOL     -0.253804
     42 C14         7.1130   -1.5380    1.3300 c3        1 MOL     -0.023408
     43 C15         8.4230   -1.1640    0.6590 c         1 MOL      0.480260
     44 O9          8.9820   -0.1380    1.0480 o         1 MOL     -0.502858
     45 H17         6.7530    0.3660    2.3950 hn        1 MOL      0.247848
     46 H18         6.3730   -1.8880    0.6070 h1        1 MOL      0.046153
     47 H19         7.3040   -2.2310    2.1510 h1        1 MOL      0.046153
     48 N5          8.8270   -1.7810   -0.4520 n         1 MOL     -0.361679
     49 C16         8.0720   -2.7320   -1.2950 c3        1 MOL     -0.091961
     50 C17         6.7870   -2.1000   -1.9010 c         1 MOL      0.728956
     51 O10         6.9150   -1.0420   -2.5310 o         1 MOL     -0.542432
     52 C18         9.0910   -3.1500   -2.4470 c3        1 MOL     -0.355238
     53 C19        10.2290   -3.8530   -1.7830 c         1 MOL      0.775709
     54 N6         11.3470   -3.2190   -1.6990 n         1 MOL     -0.857843
     55 O11        10.0610   -4.9230   -1.2450 o         1 MOL     -0.586102
     56 H20         9.6990   -1.5540   -0.9120 hn        1 MOL      0.282647
     57 H21         7.7180   -3.5750   -0.6960 h1        1 MOL      0.080303
     58 H22         9.5290   -2.2420   -2.8550 hc        1 MOL      0.121908
     59 H23         8.6620   -3.7760   -3.2280 hc        1 MOL      0.121908
     60 H24        11.6600   -2.4390   -2.2470 hn        1 MOL      0.382837
     61 H25        12.0330   -3.5880   -1.0650 hn        1 MOL      0.382837
     62 N7          5.6070   -2.6820   -1.7850 n         1 MOL     -0.488802
     63 C20         4.3070   -2.1430   -2.1310 c3        1 MOL      0.028629
     64 C21         3.2610   -3.2790   -2.3630 c         1 MOL      0.473494
     65 O12         3.3750   -4.0180   -3.3730 o         1 MOL     -0.540376
     66 H26         5.6680   -3.5240   -1.2310 hn        1 MOL      0.276203
     67 H27         4.3420   -1.4940   -3.0060 h1        1 MOL      0.066357
     68 H28         3.9360   -1.5820   -1.2710 h1        1 MOL      0.066357
     69 N8          2.2500   -3.4860   -1.4810 n         1 MOL     -0.272270
     70 C22         1.1200   -4.5270   -1.4360 c3        1 MOL     -0.125197
     71 C23        -0.2290   -3.9380   -1.0540 c         1 MOL      0.516160
     72 O13        -0.2550   -2.9850   -0.2490 o         1 MOL     -0.508494
     73 C24         1.3180   -5.7560   -0.6080 c3        1 MOL      0.415172
     74 C25         2.6050   -6.4120   -0.9750 c3        1 MOL     -0.434075
     75 O14         1.2760   -5.4360    0.7610 oh        1 MOL     -0.625009
     76 H29         2.3520   -2.8080   -0.7350 hn        1 MOL      0.201281
     77 H30         1.1140   -4.9940   -2.4310 h1        1 MOL      0.086419
     78 H31         0.5260   -6.4780   -0.7890 h1        1 MOL     -0.005555
     79 H32         1.1890   -6.2640    1.2420 ho        1 MOL      0.415899
     80 H33         2.6630   -7.3240   -0.3910 hc        1 MOL      0.108608
     81 H34         2.7270   -6.7090   -2.0210 hc        1 MOL      0.108608
     82 H35         3.4570   -5.8350   -0.6020 hc        1 MOL      0.108608
     83 N9         -1.2700   -4.3170   -1.7270 n         1 MOL     -0.329244
     84 C26        -2.6020   -3.6260   -1.5190 c3        1 MOL     -0.189485
     85 C27        -3.3230   -4.1570   -0.2920 c         1 MOL      0.489439
     86 O15        -3.2770   -5.3660   -0.0370 o         1 MOL     -0.545770
     87 C28        -3.4260   -3.6280   -2.8090 c3        1 MOL      0.085420
     88 C29        -4.8080   -2.9220   -2.7450 c3        1 MOL      0.139115
     89 C30        -2.6180   -2.9130   -3.9490 c3        1 MOL     -0.246535
     90 C31        -5.7350   -2.9560   -3.9320 c3        1 MOL     -0.143316
     91 H36        -1.2230   -5.0920   -2.3740 hn        1 MOL      0.279595
     92 H37        -2.3960   -2.5810   -1.2930 h1        1 MOL      0.285130
     93 H38        -3.5750   -4.6520   -3.1390 hc        1 MOL      0.005279
     94 H39        -4.5790   -1.9010   -2.4610 hc        1 MOL     -0.019834
     95 H40        -5.3760   -3.3790   -1.9330 hc        1 MOL     -0.019834
     96 H41        -2.2760   -1.9140   -3.6910 hc        1 MOL      0.058659
     97 H42        -1.7160   -3.4980   -4.1600 hc        1 MOL      0.058659
     98 H43        -3.2040   -2.8130   -4.8720 hc        1 MOL      0.058659
     99 H44        -6.7550   -2.7260   -3.6190 hc        1 MOL      0.024203
    100 H45        -5.4010   -2.2370   -4.6920 hc        1 MOL      0.024203
    101 H46        -5.7400   -3.9230   -4.4190 hc        1 MOL      0.024203
    102 N10        -3.8150   -3.1710    0.4900 n         1 MOL     -0.116639
    103 C32        -4.7010   -3.3460    1.6840 c3        1 MOL      0.081429
    104 C33        -5.7400   -2.2700    1.8930 c         1 MOL      0.441306
    105 O16        -6.5660   -2.4410    2.7790 o         1 MOL     -0.529190
    106 C34        -3.8740   -3.5570    2.9520 c3        1 MOL     -0.040394
    107 C35        -2.8360   -2.4020    3.3050 c         1 MOL      0.806441
    108 O17        -3.2600   -1.3280    3.8490 o         1 MOL     -0.766893
    109 O18        -1.5990   -2.5880    3.1180 o         1 MOL     -0.766893
    110 H47        -3.5240   -2.2500    0.1940 hn        1 MOL     -0.228155
    111 H48        -5.1390   -4.3220    1.4970 h1        1 MOL      0.055988
    112 H49        -3.3370   -4.4880    2.8050 hc        1 MOL      0.002403
    113 H50        -4.5920   -3.7000    3.7590 hc        1 MOL      0.002403
    114 N11        -5.8070   -1.2280    1.0530 n         1 MOL     -0.460480
    115 C36        -6.8410   -0.1690    1.0370 c3        1 MOL      0.408854
    116 C37        -6.3620    1.2230    0.4370 c         1 MOL      0.151307
    117 O19        -6.6910    1.6250   -0.6730 o         1 MOL     -0.435454
    118 C38        -8.0750   -0.6590    0.2580 c3        1 MOL     -0.458557
    119 C39        -9.3610    0.1440    0.1690 ca        1 MOL      0.279582
    120 C40        -9.8860    0.7100    1.3450 ca        1 MOL     -0.232976
    121 C41       -10.1100    0.1080   -1.0540 ca        1 MOL     -0.232976
    122 C42       -11.1220    1.4190    1.2320 ca        1 MOL     -0.089900
    123 C43       -11.3880    0.6760   -1.1350 ca        1 MOL     -0.089900
    124 C44       -11.8880    1.3290    0.0270 ca        1 MOL     -0.186192
    125 H51        -5.0480   -1.0950    0.3890 hn        1 MOL      0.314869
    126 H52        -7.0580    0.0090    2.0870 h1        1 MOL     -0.006232
    127 H53        -8.4440   -1.5410    0.7880 hc        1 MOL      0.135658
    128 H54        -7.7880   -0.9070   -0.7650 hc        1 MOL      0.135658
    129 H55        -9.4540    0.5810    2.3270 ha        1 MOL      0.142504
    130 H56        -9.7090   -0.2690   -1.9810 ha        1 MOL      0.142504
    131 H57       -11.4320    1.9980    2.0920 ha        1 MOL      0.106858
    132 H58       -11.9530    0.5980   -2.0470 ha        1 MOL      0.106858
    133 H59       -12.8430    1.8240   -0.0060 ha        1 MOL      0.105597
    134 N12        -5.4390    1.9350    1.0680 n         1 MOL      0.033014
    135 C45        -5.0400    3.2880    0.6840 c3        1 MOL     -0.146610
    136 C46        -4.4140    3.5310   -0.6480 c         1 MOL      0.328845
    137 O20        -4.2280    4.6350   -1.1540 o         1 MOL     -0.506087
    138 C47        -4.0700    3.5040    1.7970 c3        1 MOL      0.116753
    139 C48        -4.5160    2.7770    3.0610 c3        1 MOL     -0.104087
    140 C49        -4.9670    1.5560    2.4250 c3        1 MOL     -0.157939
    141 H60        -5.8830    3.9360    0.8880 h1        1 MOL      0.107288
    142 H61        -3.0990    3.1040    1.5020 hc        1 MOL      0.001186
    143 H62        -3.8900    4.5650    1.9590 hc        1 MOL      0.001186
    144 H63        -3.6990    2.7210    3.7680 hc        1 MOL      0.035100
    145 H64        -5.3620    3.2930    3.5150 hc        1 MOL      0.035100
    146 H65        -4.1290    0.9080    2.1840 h1        1 MOL      0.143479
    147 H66        -5.6370    0.9980    3.0720 h1        1 MOL      0.143479
    148 N13        -3.9650    2.4760   -1.3250 n         1 MOL      0.071812
    149 C50        -3.4390    2.4310   -2.6730 c3        1 MOL     -0.359632
    150 C51        -4.4670    2.6910   -3.7350 c         1 MOL      0.607356
    151 O21        -4.3060    3.5240   -4.5990 o         1 MOL     -0.552934
    152 C52        -2.5870    1.1370   -2.8290 c3        1 MOL      0.001706
    153 C53        -1.8210    0.6250   -1.6330 c3        1 MOL      0.086807
    154 C54        -2.6320   -0.1710   -0.6530 c         1 MOL      0.108154
    155 O22        -2.0940   -0.6260    0.3920 o         1 MOL     -0.452159
    156 O23        -3.8650   -0.3230   -0.8270 o         1 MOL     -0.452159
    157 H67        -4.1070    1.5360   -0.9700 hn        1 MOL      0.202956
    158 H68        -2.7480    3.2850   -2.6500 h1        1 MOL      0.131490
    159 H69        -1.8570    1.2650   -3.6240 hc        1 MOL      0.017302
    160 H70        -3.2470    0.3660   -3.2360 hc        1 MOL      0.017302
    161 H71        -1.3770    1.5040   -1.1780 hc        1 MOL      0.021666
    162 H72        -0.9930   -0.0060   -1.9530 hc        1 MOL      0.021666
    163 N14        -5.7020    2.1540   -3.5570 n         1 MOL     -0.192580
    164 C55        -6.8880    2.4000   -4.2890 c3        1 MOL     -0.264965
    165 H73        -6.7760    2.0120   -5.3020 h1        1 MOL      0.098006
    166 H74        -7.7260    1.9020   -3.8010 h1        1 MOL      0.098006
    167 H75        -7.0750    3.4720   -4.3300 h1        1 MOL      0.098006
    168 H76        -5.8300    1.7140   -2.6550 hn        1 MOL      0.167957
    169 Ca1        -0.1620   -1.0590    1.7840 Ca        1 MOL      1.700598
    170 O24         2.0880   -0.6430    0.2630 oh        1 MOL     -0.907009
    171 H77         2.5510    0.0300   -0.2350 ho        1 MOL      0.434399
    172 H78         2.7480   -1.0080    0.8520 ho        1 MOL      0.434399
    173 O25        -1.5790    0.8020    3.2720 oh        1 MOL     -0.907009
    174 H79        -2.2430    0.1890    3.6100 ho        1 MOL      0.434399
    175 H80        -1.4110    1.3960    4.0050 ho        1 MOL      0.434399
    176 O26         1.6820   -3.0200    2.2860 oh        1 MOL     -0.907009
    177 H81         2.4050   -3.1680    2.8920 ho        1 MOL      0.434399
    178 H82         1.6110   -3.8370    1.7900 ho        1 MOL      0.434399
    179 O27         0.2210    1.4420    1.3550 oh        1 MOL     -0.907009
    180 H83        -0.5900    1.7750    1.7320 ho        1 MOL      0.434399
    181 H84         0.6400    2.2000    0.9510 ho        1 MOL      0.434399
@<TRIPOS>BOND
     1    1    2 1   
     2    1    4 1   
     3    1    5 1   
     4    1    6 1   
     5    2    3 2   
     6    2    7 1   
     7    7    8 1   
     8    7   15 1   
     9    8    9 1   
    10    8   11 1   
    11    8   16 1   
    12    9   10 2   
    13    9   19 1   
    14   11   12 1   
    15   11   17 1   
    16   11   18 1   
    17   12   13 1   
    18   12   14 1   
    19   19   20 1   
    20   19   24 1   
    21   20   21 1   
    22   20   23 1   
    23   20   25 1   
    24   21   22 2   
    25   21   29 1   
    26   23   26 1   
    27   23   27 1   
    28   23   28 1   
    29   29   30 1   
    30   29   37 1   
    31   30   31 1   
    32   30   33 1   
    33   30   38 1   
    34   31   32 2   
    35   31   41 1   
    36   33   34 1   
    37   33   39 1   
    38   33   40 1   
    39   34   35 1   
    40   34   36 1   
    41   41   42 1   
    42   41   45 1   
    43   42   43 1   
    44   42   46 1   
    45   42   47 1   
    46   43   44 2   
    47   43   48 1   
    48   48   49 1   
    49   48   56 1   
    50   49   50 1   
    51   49   52 1   
    52   49   57 1   
    53   50   51 2   
    54   50   62 1   
    55   52   53 1   
    56   52   58 1   
    57   52   59 1   
    58   53   54 1   
    59   53   55 2   
    60   54   60 1   
    61   54   61 1   
    62   62   63 1   
    63   62   66 1   
    64   63   64 1   
    65   63   67 1   
    66   63   68 1   
    67   64   65 2   
    68   64   69 1   
    69   69   70 1   
    70   69   76 1   
    71   70   71 1   
    72   70   73 1   
    73   70   77 1   
    74   71   72 2   
    75   71   83 1   
    76   73   74 1   
    77   73   75 1   
    78   73   78 1   
    79   74   80 1   
    80   74   81 1   
    81   74   82 1   
    82   75   79 1   
    83   83   84 1   
    84   83   91 1   
    85   84   85 1   
    86   84   87 1   
    87   84   92 1   
    88   85   86 2   
    89   85  102 1   
    90   87   88 1   
    91   87   89 1   
    92   87   93 1   
    93   88   90 1   
    94   88   94 1   
    95   88   95 1   
    96   89   96 1   
    97   89   97 1   
    98   89   98 1   
    99   90   99 1   
   100   90  100 1   
   101   90  101 1   
   102  102  103 1   
   103  102  110 1   
   104  103  104 1   
   105  103  106 1   
   106  103  111 1   
   107  104  105 2   
   108  104  114 1   
   109  106  107 1   
   110  106  112 1   
   111  106  113 1   
   112  107  108 1   
   113  107  109 1   
   114  114  115 1   
   115  114  125 1   
   116  115  116 1   
   117  115  118 1   
   118  115  126 1   
   119  116  117 2   
   120  116  134 1   
   121  118  119 1   
   122  118  127 1   
   123  118  128 1   
   124  119  120 ar  
   125  119  121 ar  
   126  120  122 ar  
   127  120  129 1   
   128  121  123 ar  
   129  121  130 1   
   130  122  124 ar  
   131  122  131 1   
   132  123  124 ar  
   133  123  132 1   
   134  124  133 1   
   135  134  135 1   
   136  134  140 1   
   137  135  136 1   
   138  135  138 1   
   139  135  141 1   
   140  136  137 2   
   141  136  148 1   
   142  138  139 1   
   143  138  142 1   
   144  138  143 1   
   145  139  140 1   
   146  139  144 1   
   147  139  145 1   
   148  140  146 1   
   149  140  147 1   
   150  148  149 1   
   151  148  157 1   
   152  149  150 1   
   153  149  152 1   
   154  149  158 1   
   155  150  151 2   
   156  150  163 1   
   157  152  153 1   
   158  152  159 1   
   159  152  160 1   
   160  153  154 1   
   161  153  161 1   
   162  153  162 1   
   163  154  155 1   
   164  154  156 1   
   165  163  164 1   
   166  163  168 1   
   167  164  165 1   
   168  164  166 1   
   169  164  167 1   
   170  170  171 1   
   171  170  172 1   
   172  173  174 1   
   173  173  175 1   
   174  176  177 1   
   175  176  178 1   
   176  179  180 1   
   177  179  181 1   
@<TRIPOS>SUBSTRUCTURE
     1 MOL         1 TEMP              0 ****  ****    0 ROOT
