@<TRIPOS>MOLECULE
MOL
  192   187     1     0     0
SMALL
resp


@<TRIPOS>ATOM
      1 C1          9.2590    1.8020    1.2790 c3        1 MOL     -0.437135
      2 C2          8.3130    1.0840    0.3550 c         1 MOL      0.736350
      3 O1          7.0980    1.2000    0.5130 o         1 MOL     -0.630458
      4 H1         10.1990    1.9930    0.7600 hc        1 MOL      0.106370
      5 H2          8.8170    2.7480    1.5900 hc        1 MOL      0.106370
      6 H3          9.4490    1.1830    2.1570 hc        1 MOL      0.106370
      7 N1          8.8160    0.3330   -0.6850 n         1 MOL     -0.519393
      8 C3          7.9010   -0.1930   -1.7760 c3        1 MOL      0.077804
      9 C4          6.9680   -1.4760   -1.5000 c         1 MOL      0.410597
     10 O2          6.4490   -2.2300   -2.3830 o         1 MOL     -0.446983
     11 C5          8.7200   -0.3730   -3.0110 c3        1 MOL     -0.063018
     12 C6         10.0270   -1.1820   -2.7990 c         1 MOL      0.656391
     13 O3          9.9100   -2.3820   -3.0510 o         1 MOL     -0.688958
     14 O4         11.0110   -0.6550   -2.2260 o         1 MOL     -0.688958
     15 H4          9.8100    0.2200   -0.8130 hn        1 MOL      0.223658
     16 H5          7.2880    0.6820   -1.9370 h1        1 MOL      0.101022
     17 H6          8.9510    0.6370   -3.3510 hc        1 MOL     -0.005339
     18 H7          8.0770   -0.8280   -3.7640 hc        1 MOL     -0.005339
     19 N2          6.6530   -1.6770   -0.1780 n         1 MOL     -0.066390
     20 C7          6.2580   -3.0230    0.3140 c3        1 MOL     -0.086128
     21 C8          4.8310   -3.4110    0.0300 c         1 MOL      0.463024
     22 O5          4.5850   -4.6250   -0.1340 o         1 MOL     -0.530082
     23 C9          6.6980   -3.1540    1.7910 c3        1 MOL      0.141139
     24 C10         8.1510   -2.6630    2.0920 c3        1 MOL      0.142777
     25 C11         8.6750   -3.1450    3.4670 c3        1 MOL     -0.151333
     26 C12         9.8890   -2.2940    3.8450 c3        1 MOL     -0.071641
     27 N3         10.3600   -2.7640    5.1530 n4        1 MOL     -0.060180
     28 H8          7.0170   -0.9600    0.4380 hn        1 MOL      0.037042
     29 H9          6.9670   -3.6510   -0.2390 h1        1 MOL      0.114036
     30 H10         6.6500   -4.1760    2.1430 hc        1 MOL     -0.050187
     31 H11         6.1180   -2.4740    2.4080 hc        1 MOL     -0.050187
     32 H12         8.0650   -1.5870    2.1930 hc        1 MOL     -0.001722
     33 H13         8.8420   -2.9480    1.2850 hc        1 MOL     -0.001722
     34 H14         9.0330   -4.1520    3.3000 hc        1 MOL      0.066785
     35 H15         7.9000   -3.1540    4.2460 hc        1 MOL      0.066785
     36 H16         9.6810   -1.2500    4.0550 hx        1 MOL      0.103808
     37 H17        10.6170   -2.4280    3.0420 hx        1 MOL      0.103808
     38 H18        10.2510   -3.7590    5.2950 hn        1 MOL      0.248073
     39 H19        11.3250   -2.5840    5.3810 hn        1 MOL      0.248073
     40 H20         9.8460   -2.4130    5.9540 hn        1 MOL      0.248073
     41 N4          3.8050   -2.5360    0.1310 n         1 MOL     -0.360481
     42 C13         3.9260   -1.2240    0.8260 c3        1 MOL     -0.003768
     43 C14         3.8750    0.0460   -0.1090 c         1 MOL      0.263724
     44 O6          3.7970   -0.0680   -1.3710 o         1 MOL     -0.481500
     45 C15         2.9560   -1.1750    1.9520 c3        1 MOL     -0.232053
     46 C16         1.5180   -1.6320    1.6730 c         1 MOL      0.719065
     47 O7          0.8990   -0.9720    0.8380 o         1 MOL     -0.672212
     48 O8          1.0700   -2.6680    2.2250 o         1 MOL     -0.672212
     49 H21         2.9130   -2.9010   -0.1850 hn        1 MOL      0.350171
     50 H22         4.8430   -1.1000    1.4000 h1        1 MOL      0.184567
     51 H23         2.9940   -0.2630    2.5440 hc        1 MOL      0.018070
     52 H24         3.2560   -1.9340    2.6670 hc        1 MOL      0.018070
     53 N5          4.0160    1.2360    0.4360 n         1 MOL     -0.290704
     54 C17         4.0640    2.5020   -0.3110 c3        1 MOL     -0.012346
     55 C18         2.7290    2.7600   -0.9810 c         1 MOL      0.509545
     56 O9          1.7660    2.1650   -0.5860 o         1 MOL     -0.574918
     57 H25         4.1850    1.3050    1.4340 hn        1 MOL      0.253391
     58 H26         4.8970    2.5200   -1.0180 h1        1 MOL      0.086913
     59 H27         4.3500    3.3570    0.3020 h1        1 MOL      0.086913
     60 N6          2.7250    3.7480   -1.9320 n         1 MOL     -0.546387
     61 C19         1.4750    4.3280   -2.5340 c3        1 MOL      0.459551
     62 C20         1.6280    5.8590   -2.7970 c         1 MOL      0.350102
     63 O10         2.7010    6.4050   -2.8000 o         1 MOL     -0.508809
     64 C21         1.2080    3.6820   -3.9400 c3        1 MOL     -0.202557
     65 C22         0.8100    2.2580   -3.7610 c         1 MOL      0.666641
     66 O11         1.2270    1.3010   -4.4590 o         1 MOL     -0.662256
     67 O12        -0.0180    1.9930   -2.8400 o         1 MOL     -0.662256
     68 H28         3.5430    4.3320   -2.0620 hn        1 MOL      0.291416
     69 H29         0.5920    4.0080   -1.9940 h1        1 MOL     -0.106869
     70 H30         2.1290    3.7800   -4.5110 hc        1 MOL      0.046958
     71 H31         0.4340    4.2140   -4.4880 hc        1 MOL      0.046958
     72 N7          0.5320    6.5570   -3.0190 n         1 MOL     -0.363551
     73 C23        -0.9150    6.2170   -3.0520 c3        1 MOL     -0.235993
     74 C24        -1.4490    6.1040   -1.6790 c         1 MOL      0.765563
     75 O13        -0.8510    6.5070   -0.6720 o         1 MOL     -0.558094
     76 H32         0.7440    7.5190   -3.2410 hn        1 MOL      0.301317
     77 H33        -1.0500    5.2900   -3.6050 h1        1 MOL      0.122422
     78 H34        -1.4560    7.0910   -3.4170 h1        1 MOL      0.122422
     79 N8         -2.5840    5.4370   -1.5270 n         1 MOL     -0.648547
     80 C25        -3.0810    4.8430   -0.2610 c3        1 MOL     -0.110282
     81 C26        -2.0860    3.8820    0.4320 c         1 MOL      0.915532
     82 O14        -1.4530    3.0600   -0.2130 o         1 MOL     -0.630059
     83 C27        -4.4680    4.2440   -0.4550 c3        1 MOL      0.415015
     84 C28        -5.2220    3.6660    0.7340 c3        1 MOL     -0.401716
     85 O15        -4.3670    3.2050   -1.3450 oh        1 MOL     -0.587256
     86 H35        -3.1270    5.1610   -2.3210 hn        1 MOL      0.318222
     87 H36        -3.2600    5.5820    0.5200 h1        1 MOL      0.059901
     88 H37        -5.1170    4.9460   -0.9660 h1        1 MOL     -0.005481
     89 H38        -3.5530    3.3380   -1.8230 ho        1 MOL      0.373329
     90 H39        -6.1650    3.3040    0.3540 hc        1 MOL      0.106878
     91 H40        -4.6380    2.8210    1.1070 hc        1 MOL      0.106878
     92 H41        -5.3510    4.5550    1.3560 hc        1 MOL      0.106878
     93 N9         -2.0610    3.9270    1.7970 n         1 MOL     -0.795054
     94 C29        -1.3220    2.9090    2.6810 c3        1 MOL      0.039654
     95 C30        -1.8880    1.4480    2.5880 c         1 MOL      0.621034
     96 O16        -1.6120    0.7950    1.6010 o         1 MOL     -0.599503
     97 C31         0.2420    2.8930    2.4940 c3        1 MOL      0.046467
     98 C32         0.8960    4.3040    2.2920 c3        1 MOL      0.106640
     99 C33         0.9660    2.1610    3.6480 c3        1 MOL     -0.317076
    100 C34         0.8390    5.1390    3.5380 c3        1 MOL     -0.238398
    101 H42        -2.4900    4.7260    2.2430 hn        1 MOL      0.363989
    102 H43        -1.5250    3.2260    3.7040 h1        1 MOL      0.068439
    103 H44         0.4250    2.2860    1.6020 hc        1 MOL      0.010781
    104 H45         0.3710    4.8670    1.5260 hc        1 MOL      0.033839
    105 H46         1.9170    4.3070    1.9210 hc        1 MOL      0.033839
    106 H47         0.5890    2.3650    4.6490 hc        1 MOL      0.086956
    107 H48         0.8890    1.0920    3.4580 hc        1 MOL      0.086956
    108 H49         2.0090    2.4570    3.7640 hc        1 MOL      0.086956
    109 H50        -0.1340    5.6000    3.6840 hc        1 MOL      0.048356
    110 H51         1.0630    4.6080    4.4610 hc        1 MOL      0.048356
    111 H52         1.4810    5.9990    3.3880 hc        1 MOL      0.048356
    112 N10        -2.3530    0.8700    3.6790 n         1 MOL     -0.364552
    113 C35        -2.5780   -0.6230    3.8940 c3        1 MOL     -0.062178
    114 C36        -3.9590   -1.0670    3.3260 c         1 MOL      0.558677
    115 O17        -4.1880   -2.2600    3.1170 o         1 MOL     -0.558667
    116 C37        -2.4380   -0.8550    5.4110 c3        1 MOL      0.453383
    117 C38        -3.6990   -0.1980    6.1090 c3        1 MOL     -0.167813
    118 O18        -1.2660   -0.3590    5.8950 oh        1 MOL     -0.634351
    119 H53        -2.5130    1.5020    4.4430 hn        1 MOL      0.227056
    120 H54        -1.8270   -1.2170    3.3710 h1        1 MOL      0.083364
    121 H55        -2.5270   -1.9210    5.6210 h1        1 MOL     -0.023185
    122 H56        -0.5780   -0.9880    5.6560 ho        1 MOL      0.412390
    123 H57        -3.8660    0.8590    5.9040 hc        1 MOL      0.035774
    124 H58        -4.6130   -0.6840    5.7880 hc        1 MOL      0.035774
    125 H59        -3.5940   -0.2400    7.2000 hc        1 MOL      0.035774
    126 N11        -4.9460   -0.1870    3.0800 n         1 MOL     -0.298335
    127 C39        -6.2590   -0.5470    2.5560 c3        1 MOL     -0.055199
    128 C40        -5.9900   -1.0560    1.1230 c         1 MOL      0.537999
    129 O19        -5.2700   -0.3360    0.3580 o         1 MOL     -0.509969
    130 C41        -7.2530    0.6380    2.4710 c3        1 MOL      0.546638
    131 C42        -8.6100    0.2260    1.9200 c3        1 MOL     -0.124674
    132 O20        -7.3300    1.1570    3.7620 oh        1 MOL     -0.684233
    133 H60        -4.7180    0.7890    3.2190 hn        1 MOL      0.120485
    134 H61        -6.6070   -1.3600    3.1950 h1        1 MOL      0.088142
    135 H62        -6.8700    1.4400    1.8390 h1        1 MOL     -0.097976
    136 H63        -6.6570    1.8360    3.8600 ho        1 MOL      0.410880
    137 H64        -8.8970   -0.7170    2.3790 hc        1 MOL      0.027523
    138 H65        -9.3210    1.0550    2.0170 hc        1 MOL      0.027523
    139 H66        -8.4970    0.1310    0.8430 hc        1 MOL      0.027523
    140 N12        -6.5190   -2.2080    0.7870 n         1 MOL     -0.578646
    141 C43        -6.4670   -2.8330   -0.5890 c3        1 MOL      0.373088
    142 C44        -5.1660   -2.7350   -1.3270 c         1 MOL      0.344571
    143 O21        -5.0360   -1.9060   -2.1970 o         1 MOL     -0.513347
    144 C45        -7.6940   -2.3110   -1.3850 c3        1 MOL     -0.502471
    145 C46        -9.1120   -2.3400   -0.8240 c3        1 MOL      0.107893
    146 C47       -10.0880   -1.6910   -1.8190 c3        1 MOL      0.042787
    147 C48       -11.5530   -1.6590   -1.3340 c3        1 MOL     -0.054857
    148 N13       -12.3260   -0.6510   -2.1210 n4        1 MOL     -0.101322
    149 H67        -7.0920   -2.6570    1.4840 hn        1 MOL      0.299625
    150 H68        -6.6300   -3.9150   -0.5540 h1        1 MOL      0.016104
    151 H69        -7.7300   -2.9670   -2.2510 hc        1 MOL      0.156975
    152 H70        -7.5110   -1.2720   -1.6480 hc        1 MOL      0.156975
    153 H71        -9.1740   -1.8400    0.1470 hc        1 MOL      0.002898
    154 H72        -9.4040   -3.3850   -0.6970 hc        1 MOL      0.002898
    155 H73       -10.0950   -2.2790   -2.7430 hc        1 MOL      0.030024
    156 H74        -9.7550   -0.7070   -2.1490 hc        1 MOL      0.030024
    157 H75       -11.5330   -1.3550   -0.2850 hx        1 MOL      0.071923
    158 H76       -11.8700   -2.6940   -1.5000 hx        1 MOL      0.071923
    159 H77       -11.9140    0.2630   -2.0190 hn        1 MOL      0.190659
    160 H78       -12.3670   -0.9070   -3.0880 hn        1 MOL      0.190659
    161 H79       -13.2730   -0.5520   -1.7680 hn        1 MOL      0.190659
    162 N14        -4.1590   -3.5720   -1.0070 n         1 MOL     -0.276068
    163 C49        -2.7940   -3.6420   -1.5720 c3        1 MOL      0.411516
    164 C50        -1.6540   -3.0500   -0.6910 c         1 MOL      0.207123
    165 O22        -1.1150   -1.9850   -0.9890 o         1 MOL     -0.555222
    166 C51        -2.5100   -5.0460   -2.2070 c3        1 MOL      0.060034
    167 C52        -3.3780   -5.3970   -3.3800 c3        1 MOL     -0.147701
    168 C53        -3.0490   -6.7370   -4.0350 c         1 MOL      0.645423
    169 O23        -2.1180   -6.8090   -4.8580 o         1 MOL     -0.607132
    170 O24        -3.6050   -7.7410   -3.5810 o         1 MOL     -0.607132
    171 H80        -4.3830   -4.3510   -0.4000 hn        1 MOL      0.198871
    172 H81        -2.7950   -2.9260   -2.3950 h1        1 MOL     -0.016287
    173 H82        -2.6390   -5.7640   -1.3970 hc        1 MOL      0.007629
    174 H83        -1.4900   -5.0140   -2.5930 hc        1 MOL      0.007629
    175 H84        -3.2040   -4.5950   -4.1000 hc        1 MOL     -0.014466
    176 H85        -4.4070   -5.4310   -3.0120 hc        1 MOL     -0.014466
    177 N15        -1.2210   -3.5990    0.4450 n         1 MOL     -0.214777
    178 C54        -1.7820   -4.7550    1.0140 c3        1 MOL      0.012254
    179 H86        -2.8690   -4.6990    0.9540 h1        1 MOL      0.012940
    180 H87        -1.4340   -5.6340    0.4700 h1        1 MOL      0.012940
    181 H88        -1.4790   -4.8300    2.0590 h1        1 MOL      0.012940
    182 H89        -0.5180   -3.0640    0.9420 hn        1 MOL      0.285850
    183 Ca1        -0.3640    0.5200   -0.8010 Ca        1 MOL      1.793254
    184 O25         1.4250   -0.3820   -2.5470 oh        1 MOL     -0.886386
    185 H90         1.2800    0.3300   -3.1750 ho        1 MOL      0.432882
    186 H91         2.2930   -0.1880   -2.1720 ho        1 MOL      0.432882
    187 O26        -1.4290   -0.4610   -3.2600 oh        1 MOL     -0.886386
    188 H92        -1.5110   -0.0620   -4.1210 ho        1 MOL      0.432882
    189 H93        -1.1160   -1.3550   -3.4430 ho        1 MOL      0.432882
    190 O27        -3.0270    0.3000   -1.0370 oh        1 MOL     -0.886386
    191 H94        -3.6900    0.1390   -0.3700 ho        1 MOL      0.432882
    192 H95        -3.3420   -0.1630   -1.8040 ho        1 MOL      0.432882
@<TRIPOS>BOND
     1    1    2 1   
     2    1    4 1   
     3    1    5 1   
     4    1    6 1   
     5    2    3 2   
     6    2    7 1   
     7    7    8 1   
     8    7   15 1   
     9    8    9 1   
    10    8   11 1   
    11    8   16 1   
    12    9   10 2   
    13    9   19 1   
    14   11   12 1   
    15   11   17 1   
    16   11   18 1   
    17   12   13 1   
    18   12   14 1   
    19   19   20 1   
    20   19   28 1   
    21   20   21 1   
    22   20   23 1   
    23   20   29 1   
    24   21   22 2   
    25   21   41 1   
    26   23   24 1   
    27   23   30 1   
    28   23   31 1   
    29   24   25 1   
    30   24   32 1   
    31   24   33 1   
    32   25   26 1   
    33   25   34 1   
    34   25   35 1   
    35   26   27 1   
    36   26   36 1   
    37   26   37 1   
    38   27   38 1   
    39   27   39 1   
    40   27   40 1   
    41   41   42 1   
    42   41   49 1   
    43   42   43 1   
    44   42   45 1   
    45   42   50 1   
    46   43   44 2   
    47   43   53 1   
    48   45   46 1   
    49   45   51 1   
    50   45   52 1   
    51   46   47 1   
    52   46   48 1   
    53   53   54 1   
    54   53   57 1   
    55   54   55 1   
    56   54   58 1   
    57   54   59 1   
    58   55   56 2   
    59   55   60 1   
    60   60   61 1   
    61   60   68 1   
    62   61   62 1   
    63   61   64 1   
    64   61   69 1   
    65   62   63 2   
    66   62   72 1   
    67   64   65 1   
    68   64   70 1   
    69   64   71 1   
    70   65   66 1   
    71   65   67 1   
    72   72   73 1   
    73   72   76 1   
    74   73   74 1   
    75   73   77 1   
    76   73   78 1   
    77   74   75 2   
    78   74   79 1   
    79   79   80 1   
    80   79   86 1   
    81   80   81 1   
    82   80   83 1   
    83   80   87 1   
    84   81   82 2   
    85   81   93 1   
    86   83   84 1   
    87   83   85 1   
    88   83   88 1   
    89   84   90 1   
    90   84   91 1   
    91   84   92 1   
    92   85   89 1   
    93   93   94 1   
    94   93  101 1   
    95   94   95 1   
    96   94   97 1   
    97   94  102 1   
    98   95   96 2   
    99   95  112 1   
   100   97   98 1   
   101   97   99 1   
   102   97  103 1   
   103   98  100 1   
   104   98  104 1   
   105   98  105 1   
   106   99  106 1   
   107   99  107 1   
   108   99  108 1   
   109  100  109 1   
   110  100  110 1   
   111  100  111 1   
   112  112  113 1   
   113  112  119 1   
   114  113  114 1   
   115  113  116 1   
   116  113  120 1   
   117  114  115 2   
   118  114  126 1   
   119  116  117 1   
   120  116  118 1   
   121  116  121 1   
   122  117  123 1   
   123  117  124 1   
   124  117  125 1   
   125  118  122 1   
   126  126  127 1   
   127  126  133 1   
   128  127  128 1   
   129  127  130 1   
   130  127  134 1   
   131  128  129 2   
   132  128  140 1   
   133  130  131 1   
   134  130  132 1   
   135  130  135 1   
   136  131  137 1   
   137  131  138 1   
   138  131  139 1   
   139  132  136 1   
   140  140  141 1   
   141  140  149 1   
   142  141  142 1   
   143  141  144 1   
   144  141  150 1   
   145  142  143 2   
   146  142  162 1   
   147  144  145 1   
   148  144  151 1   
   149  144  152 1   
   150  145  146 1   
   151  145  153 1   
   152  145  154 1   
   153  146  147 1   
   154  146  155 1   
   155  146  156 1   
   156  147  148 1   
   157  147  157 1   
   158  147  158 1   
   159  148  159 1   
   160  148  160 1   
   161  148  161 1   
   162  162  163 1   
   163  162  171 1   
   164  163  164 1   
   165  163  166 1   
   166  163  172 1   
   167  164  165 2   
   168  164  177 1   
   169  166  167 1   
   170  166  173 1   
   171  166  174 1   
   172  167  168 1   
   173  167  175 1   
   174  167  176 1   
   175  168  169 1   
   176  168  170 1   
   177  177  178 1   
   178  177  182 1   
   179  178  179 1   
   180  178  180 1   
   181  178  181 1   
   182  184  185 1   
   183  184  186 1   
   184  187  188 1   
   185  187  189 1   
   186  190  191 1   
   187  190  192 1   
@<TRIPOS>SUBSTRUCTURE
     1 MOL         1 TEMP              0 ****  ****    0 ROOT
