@<TRIPOS>MOLECULE
MOL
  204   195     1     0     0
SMALL
resp


@<TRIPOS>ATOM
      1 C1          9.4820    6.3350    2.0840 c3        1 MOL     -0.263335
      2 C2          8.3330    5.4950    1.4020 c         1 MOL      0.709321
      3 O1          7.2630    5.9900    1.1560 o         1 MOL     -0.603765
      4 H1          9.8270    5.8180    2.9800 hc        1 MOL      0.068330
      5 H2         10.3130    6.4480    1.3880 hc        1 MOL      0.068330
      6 H3          9.1010    7.3190    2.3570 hc        1 MOL      0.068330
      7 N1          8.5330    4.1720    1.1560 n         1 MOL     -0.515593
      8 C3          7.3980    3.2500    0.8260 c3        1 MOL     -0.059569
      9 C4          6.3250    3.1010    1.9010 c         1 MOL      0.565611
     10 O2          6.6620    3.0440    3.1210 o         1 MOL     -0.535211
     11 C5          7.9710    1.8740    0.4160 c3        1 MOL     -0.364091
     12 C6          9.0120    2.0580   -0.7140 c         1 MOL      0.725263
     13 O3         10.1910    1.8330   -0.4100 o         1 MOL     -0.659622
     14 O4          8.6540    2.3790   -1.8850 o         1 MOL     -0.659622
     15 H4          9.4430    3.7750    1.3080 hn        1 MOL      0.332052
     16 H5          6.8200    3.6800    0.0080 h1        1 MOL      0.057802
     17 H6          7.1400    1.2260    0.1410 hc        1 MOL      0.116819
     18 H7          8.5020    1.3390    1.2100 hc        1 MOL      0.116819
     19 N2          5.1290    3.0660    1.5090 n         1 MOL     -0.349579
     20 C7          4.0200    2.8720    2.3850 c3        1 MOL     -0.057502
     21 C8          3.7770    1.3950    2.8210 c         1 MOL      0.463547
     22 O5          3.4910    1.1620    4.0240 o         1 MOL     -0.519456
     23 C9          2.7680    3.4860    1.7240 c3        1 MOL      0.020661
     24 C10         2.8520    5.0410    1.4840 c3        1 MOL     -0.077507
     25 C11         3.1850    5.8840    2.7440 c3        1 MOL     -0.193939
     26 C12         3.4840    7.4110    2.6490 c3        1 MOL      0.072693
     27 N3          2.7350    8.1610    1.6160 n4        1 MOL     -0.270486
     28 H8          5.0420    3.2450    0.5150 hn        1 MOL      0.251863
     29 H9          4.2140    3.4160    3.3110 h1        1 MOL      0.075051
     30 H10         1.9070    3.2840    2.3640 hc        1 MOL      0.065887
     31 H11         2.6410    2.9150    0.8040 hc        1 MOL      0.065887
     32 H12         1.8540    5.4010    1.2370 hc        1 MOL      0.052057
     33 H13         3.5340    5.2420    0.6550 hc        1 MOL      0.052057
     34 H14         4.1190    5.4600    3.1040 hc        1 MOL      0.096454
     35 H15         2.4530    5.7390    3.5420 hc        1 MOL      0.096454
     36 H16         4.5490    7.4780    2.4620 hx        1 MOL      0.079995
     37 H17         3.2930    7.8140    3.6500 hx        1 MOL      0.079995
     38 H18         2.9830    7.9160    0.6680 hn        1 MOL      0.270356
     39 H19         1.7390    8.0420    1.7340 hn        1 MOL      0.270356
     40 H20         2.9120    9.1390    1.7660 hn        1 MOL      0.270356
     41 N4          4.0620    0.3090    2.0830 n         1 MOL     -0.259545
     42 C13         4.1940    0.1330    0.6300 c3        1 MOL     -0.046768
     43 C14         5.2120   -0.9400    0.2680 c         1 MOL      0.509126
     44 O6          5.4430   -1.8350    1.0940 o         1 MOL     -0.471943
     45 C15         2.8400   -0.0520   -0.0950 c3        1 MOL     -0.152269
     46 C16         2.0920   -1.2340    0.3300 c         1 MOL      0.759298
     47 O7          2.2460   -2.3250   -0.2660 o         1 MOL     -0.747949
     48 O8          1.3950   -1.1780    1.3580 o         1 MOL     -0.747949
     49 H21         4.1560   -0.5610    2.5910 hn        1 MOL      0.275934
     50 H22         4.5640    1.0930    0.2690 h1        1 MOL      0.064638
     51 H23         3.1520   -0.1870   -1.1300 hc        1 MOL      0.006024
     52 H24         2.0940    0.7250   -0.0020 hc        1 MOL      0.006024
     53 N5          5.7840   -0.8810   -0.9650 n         1 MOL     -0.302019
     54 C17         6.8810   -1.7050   -1.4330 c3        1 MOL     -0.187840
     55 C18         6.3820   -3.0220   -2.0220 c         1 MOL      0.321491
     56 O9          6.9730   -3.4320   -3.0300 o         1 MOL     -0.528887
     57 H25         5.5680   -0.1170   -1.5980 hn        1 MOL      0.260266
     58 H26         7.6120   -1.9310   -0.6580 h1        1 MOL      0.178679
     59 H27         7.5260   -1.1130   -2.0740 h1        1 MOL      0.178679
     60 N6          5.3220   -3.6710   -1.5160 n         1 MOL      0.281313
     61 C19         4.9280   -5.1080   -1.6380 c3        1 MOL      0.031269
     62 C20         4.4640   -5.3770   -3.1160 c         1 MOL      0.583680
     63 O10         4.9320   -6.2840   -3.7500 o         1 MOL     -0.547149
     64 C21         5.9510   -6.0700   -1.0140 c3        1 MOL     -0.213730
     65 C22         6.3170   -5.5220    0.2930 c         1 MOL      0.707622
     66 O11         7.4450   -5.0800    0.5540 o         1 MOL     -0.642415
     67 O12         5.3940   -5.4920    1.1600 o         1 MOL     -0.642415
     68 H28         4.9690   -3.2100   -0.6850 hn        1 MOL     -0.203248
     69 H29         3.9690   -5.1750   -1.1190 h1        1 MOL      0.004809
     70 H30         6.8260   -6.0950   -1.6570 hc        1 MOL      0.056667
     71 H31         5.5690   -7.0880   -0.8940 hc        1 MOL      0.056667
     72 N7          3.5440   -4.5470   -3.7000 n         1 MOL     -0.597303
     73 C23         2.8090   -3.4780   -3.0290 c3        1 MOL      0.123398
     74 C24         1.7150   -2.7390   -3.8350 c         1 MOL      0.517455
     75 O13         1.5740   -2.9690   -5.1000 o         1 MOL     -0.585313
     76 H32         3.2930   -4.6770   -4.6750 hn        1 MOL      0.320377
     77 H33         3.4990   -2.6450   -2.9270 h1        1 MOL      0.022962
     78 H34         2.3800   -3.8250   -2.0830 h1        1 MOL      0.022962
     79 N8          0.8760   -2.0070   -3.1710 n         1 MOL     -0.269193
     80 C25        -0.1690   -1.1600   -3.7310 c3        1 MOL     -0.181020
     81 C26        -0.5620   -0.0430   -2.7340 c         1 MOL      0.685986
     82 O14        -0.4420   -0.2910   -1.5390 o         1 MOL     -0.462657
     83 C27        -1.3390   -2.1270   -4.0070 c3        1 MOL      0.425232
     84 C28        -2.4420   -1.4210   -4.7270 c3        1 MOL     -0.387864
     85 O15        -1.8380   -2.6960   -2.8390 oh        1 MOL     -0.630195
     86 H35         0.9860   -1.9590   -2.1660 hn        1 MOL      0.149962
     87 H36         0.2110   -0.7970   -4.6840 h1        1 MOL      0.095373
     88 H37        -0.9280   -2.9000   -4.6500 h1        1 MOL      0.061430
     89 H38        -2.4560   -2.0880   -2.4290 ho        1 MOL      0.399066
     90 H39        -3.2190   -2.1240   -5.0310 hc        1 MOL      0.085443
     91 H40        -2.8670   -0.7640   -3.9690 hc        1 MOL      0.085443
     92 H41        -2.0790   -0.9190   -5.6190 hc        1 MOL      0.085443
     93 N9         -1.0060    1.1490   -3.2620 n         1 MOL     -0.710265
     94 C29        -1.0660    2.3840   -2.5150 c3        1 MOL      0.173462
     95 C30        -2.0210    2.3140   -1.3200 c         1 MOL      0.624275
     96 O16        -1.9910    1.5640   -0.3580 o         1 MOL     -0.494550
     97 C31         0.3380    3.0140   -2.1710 c3        1 MOL      0.112567
     98 C32         1.2770    3.1590   -3.3660 c3        1 MOL     -0.001345
     99 C33         0.2480    4.3260   -1.4230 c3        1 MOL      0.082513
    100 C34         0.8640    4.1360   -4.4510 c3        1 MOL     -0.283958
    101 H42        -0.9850    1.3320   -4.2560 hn        1 MOL      0.358375
    102 H43        -1.5450    3.1210   -3.1600 h1        1 MOL      0.025746
    103 H44         0.7910    2.3540   -1.4240 hc        1 MOL     -0.055446
    104 H45         1.3700    2.2130   -3.8990 hc        1 MOL      0.037712
    105 H46         2.2730    3.4300   -3.0270 hc        1 MOL      0.037712
    106 H47        -0.1850    4.2560   -0.4260 hc        1 MOL     -0.054247
    107 H48         1.2510    4.6670   -1.1750 hc        1 MOL     -0.054247
    108 H49        -0.2240    5.0980   -2.0210 hc        1 MOL     -0.054247
    109 H50         0.7600    5.1230   -3.9920 hc        1 MOL      0.074008
    110 H51         1.7150    4.1490   -5.1280 hc        1 MOL      0.074008
    111 H52        -0.0460    3.9660   -5.0390 hc        1 MOL      0.074008
    112 N10        -2.8910    3.3550   -1.2570 n         1 MOL     -0.471686
    113 C35        -3.8710    3.5600   -0.1830 c3        1 MOL      0.005283
    114 C36        -5.2830    3.2730   -0.6890 c         1 MOL      0.347923
    115 O17        -6.2330    3.5340    0.0090 o         1 MOL     -0.524541
    116 C37        -3.7940    4.9670    0.4150 c3        1 MOL      0.488652
    117 C38        -4.1840    6.0680   -0.5510 c3        1 MOL     -0.424754
    118 O18        -2.5100    5.3290    0.7930 oh        1 MOL     -0.631986
    119 H53        -2.8160    4.1430   -1.8910 hn        1 MOL      0.200835
    120 H54        -3.7040    2.8120    0.5960 h1        1 MOL      0.106858
    121 H55        -4.4700    4.9790    1.2650 h1        1 MOL      0.009990
    122 H56        -2.1830    5.9540    0.1420 ho        1 MOL      0.362935
    123 H57        -4.1710    7.0660   -0.1030 hc        1 MOL      0.100932
    124 H58        -3.3880    6.0630   -1.2910 hc        1 MOL      0.100932
    125 H59        -5.0900    5.7640   -1.0680 hc        1 MOL      0.100932
    126 N11        -5.4120    2.7630   -1.9340 n         1 MOL     -0.020028
    127 C39        -6.5880    2.2800   -2.5540 c3        1 MOL     -0.226097
    128 C40        -7.0730    1.0780   -1.7310 c         1 MOL      0.576626
    129 O19        -6.8670   -0.0520   -2.0700 o         1 MOL     -0.500941
    130 C41        -6.3310    1.8630   -4.0330 c3        1 MOL      0.306988
    131 C42        -6.3950    3.1070   -4.9630 c3        1 MOL     -0.320454
    132 O20        -5.0080    1.3310   -4.1290 oh        1 MOL     -0.617440
    133 H60        -4.5630    2.5500   -2.4420 hn        1 MOL      0.153711
    134 H61        -7.3410    3.0550   -2.6430 h1        1 MOL      0.084711
    135 H62        -7.0080    1.0710   -4.3410 h1        1 MOL      0.014319
    136 H63        -5.0080    0.8100   -4.9420 ho        1 MOL      0.411485
    137 H64        -7.4490    3.3860   -5.0290 hc        1 MOL      0.083421
    138 H65        -5.8220    3.8810   -4.4640 hc        1 MOL      0.083421
    139 H66        -6.0540    2.8760   -5.9710 hc        1 MOL      0.083421
    140 N12        -7.7830    1.4020   -0.6430 n         1 MOL     -0.574859
    141 C43        -8.0460    0.5140    0.5550 c3        1 MOL      0.335714
    142 C44        -6.8630   -0.3370    0.9810 c         1 MOL      0.381913
    143 O21        -5.9150   -0.6150    0.3000 o         1 MOL     -0.411635
    144 C45        -9.2760   -0.3590    0.3440 c3        1 MOL     -0.073114
    145 C46       -10.5210    0.5240    0.0760 c3        1 MOL      0.099407
    146 C47       -11.7880   -0.2790   -0.2760 c3        1 MOL     -0.138996
    147 C48       -11.7440   -0.9230   -1.6940 c3        1 MOL     -0.087269
    148 N13       -11.6700    0.1170   -2.8270 n4        1 MOL     -0.111102
    149 H67        -7.8530    2.3920   -0.4480 hn        1 MOL      0.286449
    150 H68        -8.3010    1.2430    1.3220 h1        1 MOL      0.016933
    151 H69        -9.4150   -1.0160    1.2010 hc        1 MOL      0.030872
    152 H70        -9.0160   -0.9420   -0.5320 hc        1 MOL      0.030872
    153 H71       -10.3660    1.1910   -0.7690 hc        1 MOL     -0.034021
    154 H72       -10.6180    1.0810    0.9970 hc        1 MOL     -0.034021
    155 H73       -12.6480    0.3920   -0.2770 hc        1 MOL      0.082614
    156 H74       -11.9240   -1.0330    0.4960 hc        1 MOL      0.082614
    157 H75       -12.5520   -1.6490   -1.7580 hx        1 MOL      0.116518
    158 H76       -10.8090   -1.4700   -1.7460 hx        1 MOL      0.116518
    159 H77       -12.4930    0.7060   -2.8510 hn        1 MOL      0.182679
    160 H78       -10.8430    0.6940   -2.7650 hn        1 MOL      0.182679
    161 H79       -11.7530   -0.2730   -3.7520 hn        1 MOL      0.182679
    162 N14        -6.9320   -0.7400    2.2060 n         1 MOL     -0.450278
    163 C49        -5.9580   -1.5420    2.9350 c3        1 MOL      0.124930
    164 C50        -4.6430   -0.7970    3.0850 c         1 MOL      0.272751
    165 O22        -3.5770   -1.3520    2.7370 o         1 MOL     -0.519659
    166 C51        -6.5640   -2.0470    4.2350 c3        1 MOL     -0.036946
    167 C52        -5.4160   -2.6470    5.1210 c3        1 MOL     -0.357008
    168 C53        -5.9450   -3.5670    6.2480 c         1 MOL      0.652520
    169 O23        -7.0000   -4.2920    6.0670 o         1 MOL     -0.649734
    170 O24        -5.4650   -3.4340    7.3930 o         1 MOL     -0.649734
    171 H80        -7.7260   -0.4180    2.7500 hn        1 MOL      0.222878
    172 H81        -5.8080   -2.4170    2.3000 h1        1 MOL      0.105743
    173 H82        -7.3490   -2.7880    4.0570 hc        1 MOL      0.056491
    174 H83        -7.0210   -1.2330    4.7940 hc        1 MOL      0.056491
    175 H84        -5.0210   -1.7830    5.6560 hc        1 MOL      0.114960
    176 H85        -4.5810   -3.0750    4.5620 hc        1 MOL      0.114960
    177 N15        -4.5540    0.4970    3.3430 n         1 MOL     -0.250511
    178 C54        -5.3920    1.3270    4.1830 c3        1 MOL     -0.092943
    179 H86        -4.9850    1.3500    5.1930 h1        1 MOL      0.067966
    180 H87        -5.4210    2.3400    3.7810 h1        1 MOL      0.067966
    181 H88        -6.4020    0.9170    4.2090 h1        1 MOL      0.067966
    182 H89        -3.6400    0.9320    3.2920 hn        1 MOL      0.303847
    183 Ca1         0.6260   -3.7330    1.3920 Ca        1 MOL      1.777203
    184 O25         3.3550   -3.7190    1.8610 oh        1 MOL     -0.830162
    185 H90         3.8410   -4.5000    2.1040 ho        1 MOL      0.411299
    186 H91         4.0130   -3.0870    1.5890 ho        1 MOL      0.411299
    187 O26        -1.5920   -5.5280    1.5360 oh        1 MOL     -0.830162
    188 H92        -2.0990   -5.6590    2.3320 ho        1 MOL      0.411299
    189 H93        -1.1770   -6.3850    1.3750 ho        1 MOL      0.411299
    190 O27         1.1670   -3.9890    4.1160 oh        1 MOL     -0.830162
    191 H94         1.9190   -3.4970    4.4600 ho        1 MOL      0.411299
    192 H95         1.2880   -4.8760    4.4600 ho        1 MOL      0.411299
    193 O28         1.5220   -6.2290    2.1580 oh        1 MOL     -0.830162
    194 H96         1.9130   -6.8380    2.7710 ho        1 MOL      0.411299
    195 H97         1.1690   -6.7860    1.4550 ho        1 MOL      0.411299
    196 O29        -1.4550   -2.9250    2.8120 oh        1 MOL     -0.830162
    197 H98        -1.8720   -3.3320    3.5670 ho        1 MOL      0.411299
    198 H99        -2.0760   -2.2570    2.5140 ho        1 MOL      0.411299
    199 O30        -1.0350   -2.3570   -0.0730 oh        1 MOL     -0.830162
    200 H100       -0.5710   -1.7440   -0.6470 ho        1 MOL      0.411299
    201 H101       -1.9390   -2.0540   -0.0760 ho        1 MOL      0.411299
    202 O31         1.0620   -5.6280   -0.6490 oh        1 MOL     -0.830162
    203 H102        1.6580   -6.3820   -0.6250 ho        1 MOL      0.411299
    204 H103        0.6880   -5.6500   -1.5260 ho        1 MOL      0.411299
@<TRIPOS>BOND
     1    1    2 1   
     2    1    4 1   
     3    1    5 1   
     4    1    6 1   
     5    2    3 2   
     6    2    7 1   
     7    7    8 1   
     8    7   15 1   
     9    8    9 1   
    10    8   11 1   
    11    8   16 1   
    12    9   10 2   
    13    9   19 1   
    14   11   12 1   
    15   11   17 1   
    16   11   18 1   
    17   12   13 1   
    18   12   14 1   
    19   19   20 1   
    20   19   28 1   
    21   20   21 1   
    22   20   23 1   
    23   20   29 1   
    24   21   22 2   
    25   21   41 1   
    26   23   24 1   
    27   23   30 1   
    28   23   31 1   
    29   24   25 1   
    30   24   32 1   
    31   24   33 1   
    32   25   26 1   
    33   25   34 1   
    34   25   35 1   
    35   26   27 1   
    36   26   36 1   
    37   26   37 1   
    38   27   38 1   
    39   27   39 1   
    40   27   40 1   
    41   41   42 1   
    42   41   49 1   
    43   42   43 1   
    44   42   45 1   
    45   42   50 1   
    46   43   44 2   
    47   43   53 1   
    48   45   46 1   
    49   45   51 1   
    50   45   52 1   
    51   46   47 1   
    52   46   48 1   
    53   53   54 1   
    54   53   57 1   
    55   54   55 1   
    56   54   58 1   
    57   54   59 1   
    58   55   56 2   
    59   55   60 1   
    60   60   61 1   
    61   60   68 1   
    62   61   62 1   
    63   61   64 1   
    64   61   69 1   
    65   62   63 2   
    66   62   72 1   
    67   64   65 1   
    68   64   70 1   
    69   64   71 1   
    70   65   66 1   
    71   65   67 1   
    72   72   73 1   
    73   72   76 1   
    74   73   74 1   
    75   73   77 1   
    76   73   78 1   
    77   74   75 2   
    78   74   79 1   
    79   79   80 1   
    80   79   86 1   
    81   80   81 1   
    82   80   83 1   
    83   80   87 1   
    84   81   82 2   
    85   81   93 1   
    86   83   84 1   
    87   83   85 1   
    88   83   88 1   
    89   84   90 1   
    90   84   91 1   
    91   84   92 1   
    92   85   89 1   
    93   93   94 1   
    94   93  101 1   
    95   94   95 1   
    96   94   97 1   
    97   94  102 1   
    98   95   96 2   
    99   95  112 1   
   100   97   98 1   
   101   97   99 1   
   102   97  103 1   
   103   98  100 1   
   104   98  104 1   
   105   98  105 1   
   106   99  106 1   
   107   99  107 1   
   108   99  108 1   
   109  100  109 1   
   110  100  110 1   
   111  100  111 1   
   112  112  113 1   
   113  112  119 1   
   114  113  114 1   
   115  113  116 1   
   116  113  120 1   
   117  114  115 2   
   118  114  126 1   
   119  116  117 1   
   120  116  118 1   
   121  116  121 1   
   122  117  123 1   
   123  117  124 1   
   124  117  125 1   
   125  118  122 1   
   126  126  127 1   
   127  126  133 1   
   128  127  128 1   
   129  127  130 1   
   130  127  134 1   
   131  128  129 2   
   132  128  140 1   
   133  130  131 1   
   134  130  132 1   
   135  130  135 1   
   136  131  137 1   
   137  131  138 1   
   138  131  139 1   
   139  132  136 1   
   140  140  141 1   
   141  140  149 1   
   142  141  142 1   
   143  141  144 1   
   144  141  150 1   
   145  142  143 2   
   146  142  162 1   
   147  144  145 1   
   148  144  151 1   
   149  144  152 1   
   150  145  146 1   
   151  145  153 1   
   152  145  154 1   
   153  146  147 1   
   154  146  155 1   
   155  146  156 1   
   156  147  148 1   
   157  147  157 1   
   158  147  158 1   
   159  148  159 1   
   160  148  160 1   
   161  148  161 1   
   162  162  163 1   
   163  162  171 1   
   164  163  164 1   
   165  163  166 1   
   166  163  172 1   
   167  164  165 2   
   168  164  177 1   
   169  166  167 1   
   170  166  173 1   
   171  166  174 1   
   172  167  168 1   
   173  167  175 1   
   174  167  176 1   
   175  168  169 1   
   176  168  170 1   
   177  177  178 1   
   178  177  182 1   
   179  178  179 1   
   180  178  180 1   
   181  178  181 1   
   182  184  185 1   
   183  184  186 1   
   184  187  188 1   
   185  187  189 1   
   186  190  191 1   
   187  190  192 1   
   188  193  194 1   
   189  193  195 1   
   190  196  197 1   
   191  196  198 1   
   192  199  200 1   
   193  199  201 1   
   194  202  203 1   
   195  202  204 1   
@<TRIPOS>SUBSTRUCTURE
     1 MOL         1 TEMP              0 ****  ****    0 ROOT
