@<TRIPOS>MOLECULE
MOL
  178   175     1     0     0
SMALL
resp


@<TRIPOS>ATOM
      1 C1          2.3840   -1.7960    5.1820 c3        1 MOL     -0.364799
      2 C2          3.4190   -1.3250    4.1310 c         1 MOL      0.639031
      3 O1          3.2860   -0.4150    3.3670 o         1 MOL     -0.530504
      4 H1          2.5150   -2.8620    5.3680 hc        1 MOL      0.088901
      5 H2          2.5320   -1.2460    6.1110 hc        1 MOL      0.088901
      6 H3          1.3760   -1.6140    4.8080 hc        1 MOL      0.088901
      7 N1          4.5980   -2.0310    4.1710 n         1 MOL     -0.462064
      8 C3          5.8800   -1.6010    3.4080 c3        1 MOL      0.090796
      9 C4          5.9640   -2.2180    2.0100 c         1 MOL      0.579962
     10 O2          6.8410   -1.8390    1.1980 o         1 MOL     -0.481422
     11 C5          6.9980   -1.8550    4.4500 c3        1 MOL     -0.319967
     12 C6          8.4490   -1.6690    3.9280 c         1 MOL      0.808491
     13 O3          9.1080   -2.6680    3.7460 o         1 MOL     -0.719710
     14 O4          8.9580   -0.5210    3.8710 o         1 MOL     -0.719710
     15 H4          4.7010   -2.8860    4.6890 hn        1 MOL      0.255804
     16 H5          5.9300   -0.5450    3.1360 h1        1 MOL      0.085715
     17 H6          6.9880   -2.8600    4.8800 hc        1 MOL      0.042619
     18 H7          6.9200   -1.1660    5.2980 hc        1 MOL      0.042619
     19 N2          5.1630   -3.2310    1.6850 n         1 MOL     -0.521131
     20 C7          4.9560   -3.9230    0.4370 c3        1 MOL      0.286020
     21 C8          4.6940   -2.9960   -0.7890 c         1 MOL      0.304499
     22 O5          3.6760   -3.1460   -1.4560 o         1 MOL     -0.552683
     23 C9          6.1100   -4.8840    0.1630 c3        1 MOL     -0.329142
     24 H8          4.5240   -3.4650    2.4350 hn        1 MOL      0.250499
     25 H9          4.0700   -4.5050    0.6760 h1        1 MOL      0.061383
     26 H10         6.2790   -5.5420    1.0040 hc        1 MOL      0.090398
     27 H11         5.8410   -5.5550   -0.6540 hc        1 MOL      0.090398
     28 H12         7.0480   -4.3910   -0.1160 hc        1 MOL      0.090398
     29 N3          5.5390   -2.0550   -1.1080 n         1 MOL     -0.229081
     30 C10         5.6140   -1.2600   -2.3300 c3        1 MOL      0.151953
     31 C11         5.7450    0.2090   -2.0730 c         1 MOL      0.431184
     32 O6          5.9850    0.9820   -3.0270 o         1 MOL     -0.552599
     33 C12         6.7950   -1.8470   -3.2440 c3        1 MOL     -0.078605
     34 C13         8.1030   -2.1520   -2.5480 c         1 MOL      0.690386
     35 O7          8.6480   -3.2970   -2.7470 o         1 MOL     -0.710094
     36 O8          8.5920   -1.3730   -1.6880 o         1 MOL     -0.710094
     37 H13         6.2120   -1.9240   -0.3620 hn        1 MOL      0.282214
     38 H14         4.6870   -1.4120   -2.8910 h1        1 MOL     -0.028747
     39 H15         6.9780   -1.0970   -4.0150 hc        1 MOL     -0.037851
     40 H16         6.4990   -2.7450   -3.7790 hc        1 MOL     -0.037851
     41 N4          5.5720    0.6180   -0.8170 n         1 MOL     -0.064362
     42 C14         5.6420    1.9820   -0.2550 c3        1 MOL     -0.254251
     43 C15         4.5900    2.9770   -0.6180 c         1 MOL      0.705758
     44 O9          4.9330    4.1660   -0.6180 o         1 MOL     -0.572147
     45 H17         5.3470   -0.1420   -0.1820 hn        1 MOL      0.080352
     46 H18         6.6070    2.4100   -0.5350 h1        1 MOL      0.116646
     47 H19         5.5220    1.8830    0.8290 h1        1 MOL      0.116646
     48 N5          3.4120    2.5410   -1.0810 n         1 MOL     -0.455022
     49 C16         2.4640    3.3240   -1.9130 c3        1 MOL     -0.114593
     50 C17         2.2110    4.7750   -1.3350 c         1 MOL      0.613171
     51 O10         2.0580    4.9250   -0.1270 o         1 MOL     -0.503073
     52 C18         1.1700    2.4840   -2.0740 c3        1 MOL     -0.338921
     53 C19         1.4050    1.2510   -2.9750 c         1 MOL      0.941273
     54 N6          1.0400    1.2930   -4.2420 n         1 MOL     -0.854497
     55 O11         1.7920    0.1910   -2.5650 o         1 MOL     -0.750620
     56 H20         3.3250    1.5380   -1.0440 hn        1 MOL      0.291631
     57 H21         2.8330    3.4480   -2.9320 h1        1 MOL      0.059390
     58 H22         0.3650    3.0550   -2.5460 hc        1 MOL      0.136402
     59 H23         0.9220    2.1550   -1.0660 hc        1 MOL      0.136402
     60 H24         0.7780    2.2220   -4.5530 hn        1 MOL      0.351978
     61 H25         0.7330    0.4740   -4.7460 hn        1 MOL      0.351978
     62 N7          2.0460    5.8000   -2.2150 n         1 MOL     -0.354482
     63 C20         1.5250    7.1350   -1.9140 c3        1 MOL     -0.363208
     64 C21         0.0240    7.0590   -1.6170 c         1 MOL      0.680310
     65 O12        -0.7610    6.5480   -2.4360 o         1 MOL     -0.543151
     66 H26         2.1760    5.6150   -3.2020 hn        1 MOL      0.272957
     67 H27         1.6080    7.8090   -2.7680 h1        1 MOL      0.163721
     68 H28         2.0580    7.4990   -1.0340 h1        1 MOL      0.163721
     69 N8         -0.3550    7.6730   -0.5130 n         1 MOL     -0.461501
     70 C22        -1.7510    7.9740   -0.1300 c3        1 MOL     -0.402159
     71 C23        -2.4920    6.8370    0.5420 c         1 MOL      0.694225
     72 O13        -3.6530    7.0340    0.8890 o         1 MOL     -0.582852
     73 C24        -1.8560    9.3140    0.6370 c3        1 MOL      0.511984
     74 C25        -1.2430    9.3110    2.0930 c3        1 MOL     -0.292613
     75 O14        -1.1340   10.4290   -0.0260 oh        1 MOL     -0.634623
     76 H29         0.4040    8.1110   -0.0030 hn        1 MOL      0.283243
     77 H30        -2.3510    8.1400   -1.0350 h1        1 MOL      0.194612
     78 H31        -2.8820    9.6460    0.7360 h1        1 MOL      0.030346
     79 H32        -0.2070   10.1930   -0.0630 ho        1 MOL      0.367320
     80 H33        -1.9200    8.8220    2.7900 hc        1 MOL      0.070661
     81 H34        -0.2940    8.7760    2.1410 hc        1 MOL      0.070661
     82 H35        -1.1040   10.3420    2.4110 hc        1 MOL      0.070661
     83 N9         -1.9970    5.5440    0.6310 n         1 MOL     -0.422128
     84 C26        -2.6560    4.3210    1.1700 c3        1 MOL     -0.006945
     85 C27        -2.4380    3.0860    0.2310 c         1 MOL      0.598230
     86 O15        -1.9310    3.2880   -0.8780 o         1 MOL     -0.486859
     87 C28        -2.2940    4.0660    2.6690 c3        1 MOL      0.154809
     88 C29        -0.7720    3.8910    3.0050 c3        1 MOL     -0.342695
     89 C30        -2.9160    5.1130    3.5990 c3        1 MOL     -0.439609
     90 C31        -0.4820    3.0730    4.3130 c3        1 MOL     -0.035591
     91 H36        -1.1180    5.4000    0.1750 hn        1 MOL      0.235498
     92 H37        -3.7330    4.4910    1.2400 h1        1 MOL      0.089078
     93 H38        -2.7990    3.1310    2.9050 hc        1 MOL      0.027976
     94 H39        -0.3030    4.8730    3.0930 hc        1 MOL      0.153303
     95 H40        -0.2810    3.3740    2.1790 hc        1 MOL      0.153303
     96 H41        -2.8660    4.6800    4.5960 hc        1 MOL      0.114818
     97 H42        -2.4890    6.1060    3.4410 hc        1 MOL      0.114818
     98 H43        -3.9860    5.0750    3.3680 hc        1 MOL      0.114818
     99 H44        -1.0380    2.1280    4.3630 hc        1 MOL      0.025410
    100 H45         0.5860    2.9190    4.4490 hc        1 MOL      0.025410
    101 H46        -0.9590    3.5390    5.1750 hc        1 MOL      0.025410
    102 N10        -2.8680    1.9030    0.6420 n         1 MOL     -0.777224
    103 C32        -2.4300    0.6810   -0.0640 c3        1 MOL      0.354293
    104 C33        -3.6160   -0.2800   -0.1960 c         1 MOL      0.548538
    105 O16        -3.4110   -1.4790   -0.2940 o         1 MOL     -0.456382
    106 C34        -1.1890    0.1290    0.5690 c3        1 MOL      0.062034
    107 C35        -0.4200   -0.8670   -0.3370 c         1 MOL      0.512163
    108 O17         0.6830   -1.3610   -0.0260 o         1 MOL     -0.690916
    109 O18        -0.9090   -1.1270   -1.4290 o         1 MOL     -0.690916
    110 H47        -3.1910    1.7020    1.5750 hn        1 MOL      0.325508
    111 H48        -2.0850    0.8530   -1.0830 h1        1 MOL     -0.027152
    112 H49        -1.5210   -0.3210    1.5130 hc        1 MOL     -0.010352
    113 H50        -0.5430    0.9570    0.8660 hc        1 MOL     -0.010352
    114 N11        -4.9060    0.1890   -0.3280 n         1 MOL     -0.579115
    115 C36        -6.0370   -0.6750   -0.7620 c3        1 MOL      0.194283
    116 C37        -6.1690   -1.9600    0.1180 c         1 MOL      0.330435
    117 O19        -6.0320   -1.7750    1.3350 o         1 MOL     -0.506021
    118 C38        -7.4450    0.1010   -0.5500 c3        1 MOL     -0.308686
    119 C39        -8.7320   -0.6020   -0.9160 ca        1 MOL      0.093110
    120 C40        -8.9740   -0.9570   -2.2530 ca        1 MOL     -0.167725
    121 C41        -9.6030   -1.0680    0.0850 ca        1 MOL     -0.167725
    122 C42        -9.9360   -1.8900   -2.5810 ca        1 MOL     -0.089648
    123 C43       -10.6740   -1.8870   -0.2550 ca        1 MOL     -0.089648
    124 C44       -10.8890   -2.2600   -1.6110 ca        1 MOL     -0.170771
    125 H51        -5.0240    1.1880   -0.2650 hn        1 MOL      0.319497
    126 H52        -6.0850   -1.0900   -1.7640 h1        1 MOL      0.015868
    127 H53        -7.4390    1.0610   -1.0600 hc        1 MOL      0.113033
    128 H54        -7.4960    0.2050    0.5300 hc        1 MOL      0.113033
    129 H55        -8.4230   -0.5960   -3.1040 ha        1 MOL      0.124734
    130 H56        -9.3800   -0.8190    1.1110 ha        1 MOL      0.124734
    131 H57       -10.1330   -2.0740   -3.6300 ha        1 MOL      0.098440
    132 H58       -11.3180   -2.2300    0.5510 ha        1 MOL      0.098440
    133 H59       -11.7090   -2.8990   -1.9110 ha        1 MOL      0.108910
    134 N12        -6.3840   -3.1860   -0.3480 n         1 MOL      0.039036
    135 C45        -6.4230   -4.3830    0.5950 c3        1 MOL     -0.120337
    136 C46        -5.2630   -4.4980    1.5950 c         1 MOL      0.274796
    137 O20        -5.4940   -5.1360    2.6220 o         1 MOL     -0.508979
    138 C47        -6.4680   -5.6230   -0.3900 c3        1 MOL      0.209367
    139 C48        -7.1890   -5.0930   -1.6740 c3        1 MOL     -0.303516
    140 C49        -6.6020   -3.6300   -1.6830 c3        1 MOL      0.065916
    141 H60        -7.3750   -4.3510    1.1290 h1        1 MOL      0.100936
    142 H61        -5.4810   -6.0670   -0.5340 hc        1 MOL     -0.010309
    143 H62        -7.0760   -6.4420    0.0020 hc        1 MOL     -0.010309
    144 H63        -6.8500   -5.7850   -2.4360 hc        1 MOL      0.087722
    145 H64        -8.2640   -5.1910   -1.5190 hc        1 MOL      0.087722
    146 H65        -5.7370   -3.4590   -2.3290 h1        1 MOL      0.017786
    147 H66        -7.2650   -2.9010   -2.1510 h1        1 MOL      0.017786
    148 N13        -4.1040   -3.9360    1.2740 n         1 MOL      0.026376
    149 C50        -2.8910   -4.0520    2.1180 c3        1 MOL     -0.191769
    150 C51        -2.8590   -3.0270    3.2840 c         1 MOL      0.418842
    151 O21        -2.3160   -3.3100    4.3470 o         1 MOL     -0.533745
    152 C52        -1.5910   -4.0890    1.3050 c3        1 MOL      0.082450
    153 C53        -1.4150   -5.0680    0.2050 c3        1 MOL     -0.197133
    154 C54        -0.3150   -4.6020   -0.8280 c         1 MOL      0.855957
    155 O22         0.8880   -4.3730   -0.5670 o         1 MOL     -0.836447
    156 O23        -0.6440   -4.3780   -2.0210 o         1 MOL     -0.836447
    157 H67        -3.9590   -3.4490    0.3960 hn        1 MOL      0.093894
    158 H68        -2.9560   -5.0620    2.5260 h1        1 MOL      0.114596
    159 H69        -0.7160   -3.9310    1.9350 hc        1 MOL      0.043924
    160 H70        -1.6340   -3.1330    0.7850 hc        1 MOL      0.043924
    161 H71        -2.2990   -5.1860   -0.4160 hc        1 MOL      0.017508
    162 H72        -1.2090   -6.0750    0.5770 hc        1 MOL      0.017508
    163 N14        -3.6150   -1.9040    3.1840 n         1 MOL     -0.028766
    164 C55        -3.9410   -1.0520    4.3660 c3        1 MOL     -0.380712
    165 H73        -3.0720   -0.4510    4.6310 h1        1 MOL      0.130382
    166 H74        -4.7760   -0.3940    4.1210 h1        1 MOL      0.130382
    167 H75        -4.2140   -1.6870    5.2090 h1        1 MOL      0.130382
    168 H76        -4.0340   -1.7080    2.2890 hn        1 MOL      0.142204
    169 Ca1         1.2130   -2.5530   -2.4050 Ca        1 MOL      1.807893
    170 O24         2.8560   -1.8180   -4.6060 oh        1 MOL     -0.821547
    171 H77         3.1110   -0.8990   -4.6360 ho        1 MOL      0.413893
    172 H78         3.4610   -2.2600   -5.2010 ho        1 MOL      0.413893
    173 O25         2.0800   -4.6810   -3.7770 oh        1 MOL     -0.821547
    174 H79         2.4470   -5.4950   -3.4420 ho        1 MOL      0.413893
    175 H80         2.1340   -4.7590   -4.7280 ho        1 MOL      0.413893
    176 O26        -0.1300   -1.8010   -4.6340 oh        1 MOL     -0.821547
    177 H81         0.1270   -1.6450   -5.5420 ho        1 MOL      0.413893
    178 H82        -1.0430   -1.5330   -4.5900 ho        1 MOL      0.413893
@<TRIPOS>BOND
     1    1    2 1   
     2    1    4 1   
     3    1    5 1   
     4    1    6 1   
     5    2    3 2   
     6    2    7 1   
     7    7    8 1   
     8    7   15 1   
     9    8    9 1   
    10    8   11 1   
    11    8   16 1   
    12    9   10 2   
    13    9   19 1   
    14   11   12 1   
    15   11   17 1   
    16   11   18 1   
    17   12   13 1   
    18   12   14 1   
    19   19   20 1   
    20   19   24 1   
    21   20   21 1   
    22   20   23 1   
    23   20   25 1   
    24   21   22 2   
    25   21   29 1   
    26   23   26 1   
    27   23   27 1   
    28   23   28 1   
    29   29   30 1   
    30   29   37 1   
    31   30   31 1   
    32   30   33 1   
    33   30   38 1   
    34   31   32 2   
    35   31   41 1   
    36   33   34 1   
    37   33   39 1   
    38   33   40 1   
    39   34   35 1   
    40   34   36 1   
    41   41   42 1   
    42   41   45 1   
    43   42   43 1   
    44   42   46 1   
    45   42   47 1   
    46   43   44 2   
    47   43   48 1   
    48   48   49 1   
    49   48   56 1   
    50   49   50 1   
    51   49   52 1   
    52   49   57 1   
    53   50   51 2   
    54   50   62 1   
    55   52   53 1   
    56   52   58 1   
    57   52   59 1   
    58   53   54 1   
    59   53   55 2   
    60   54   60 1   
    61   54   61 1   
    62   62   63 1   
    63   62   66 1   
    64   63   64 1   
    65   63   67 1   
    66   63   68 1   
    67   64   65 2   
    68   64   69 1   
    69   69   70 1   
    70   69   76 1   
    71   70   71 1   
    72   70   73 1   
    73   70   77 1   
    74   71   72 2   
    75   71   83 1   
    76   73   74 1   
    77   73   75 1   
    78   73   78 1   
    79   74   80 1   
    80   74   81 1   
    81   74   82 1   
    82   75   79 1   
    83   83   84 1   
    84   83   91 1   
    85   84   85 1   
    86   84   87 1   
    87   84   92 1   
    88   85   86 2   
    89   85  102 1   
    90   87   88 1   
    91   87   89 1   
    92   87   93 1   
    93   88   90 1   
    94   88   94 1   
    95   88   95 1   
    96   89   96 1   
    97   89   97 1   
    98   89   98 1   
    99   90   99 1   
   100   90  100 1   
   101   90  101 1   
   102  102  103 1   
   103  102  110 1   
   104  103  104 1   
   105  103  106 1   
   106  103  111 1   
   107  104  105 2   
   108  104  114 1   
   109  106  107 1   
   110  106  112 1   
   111  106  113 1   
   112  107  108 1   
   113  107  109 1   
   114  114  115 1   
   115  114  125 1   
   116  115  116 1   
   117  115  118 1   
   118  115  126 1   
   119  116  117 2   
   120  116  134 1   
   121  118  119 1   
   122  118  127 1   
   123  118  128 1   
   124  119  120 ar  
   125  119  121 ar  
   126  120  122 ar  
   127  120  129 1   
   128  121  123 ar  
   129  121  130 1   
   130  122  124 ar  
   131  122  131 1   
   132  123  124 ar  
   133  123  132 1   
   134  124  133 1   
   135  134  135 1   
   136  134  140 1   
   137  135  136 1   
   138  135  138 1   
   139  135  141 1   
   140  136  137 2   
   141  136  148 1   
   142  138  139 1   
   143  138  142 1   
   144  138  143 1   
   145  139  140 1   
   146  139  144 1   
   147  139  145 1   
   148  140  146 1   
   149  140  147 1   
   150  148  149 1   
   151  148  157 1   
   152  149  150 1   
   153  149  152 1   
   154  149  158 1   
   155  150  151 2   
   156  150  163 1   
   157  152  153 1   
   158  152  159 1   
   159  152  160 1   
   160  153  154 1   
   161  153  161 1   
   162  153  162 1   
   163  154  155 1   
   164  154  156 1   
   165  163  164 1   
   166  163  168 1   
   167  164  165 1   
   168  164  166 1   
   169  164  167 1   
   170  170  171 1   
   171  170  172 1   
   172  173  174 1   
   173  173  175 1   
   174  176  177 1   
   175  176  178 1   
@<TRIPOS>SUBSTRUCTURE
     1 MOL         1 TEMP              0 ****  ****    0 ROOT
