@<TRIPOS>MOLECULE
MOL
  185   180     1     0     0
SMALL
resp


@<TRIPOS>ATOM
      1 C1          6.6800    2.8020    0.3520 c3        1 MOL     -0.395436
      2 C2          7.5400    1.7030   -0.3100 c         1 MOL      0.706456
      3 O1          6.9680    0.9570   -1.0770 o         1 MOL     -0.519784
      4 H1          7.0020    3.7800   -0.0070 hc        1 MOL      0.108342
      5 H2          5.6320    2.6490    0.0950 hc        1 MOL      0.108342
      6 H3          6.7990    2.7560    1.4340 hc        1 MOL      0.108342
      7 N1          8.8100    1.6240   -0.0190 n         1 MOL     -0.509861
      8 C3          9.6990    0.4830   -0.2750 c3        1 MOL      0.092426
      9 C4          9.1190   -0.9760   -0.0980 c         1 MOL      0.496064
     10 O2          9.6640   -1.8600   -0.7630 o         1 MOL     -0.492950
     11 C5         10.3670    0.6630   -1.6130 c3        1 MOL     -0.192734
     12 C6         10.7620    2.0450   -2.1020 c         1 MOL      0.721233
     13 O3         11.2890    2.8730   -1.3740 o         1 MOL     -0.652085
     14 O4         10.4950    2.3730   -3.2960 o         1 MOL     -0.652085
     15 H4          9.2360    2.3500    0.5370 hn        1 MOL      0.268875
     16 H5         10.5220    0.5430    0.4400 h1        1 MOL      0.000170
     17 H6          9.7760    0.1350   -2.3710 hc        1 MOL      0.057072
     18 H7         11.3410    0.1800   -1.4760 hc        1 MOL      0.057072
     19 N2          8.0120   -1.1370    0.6430 n         1 MOL     -0.503174
     20 C7          7.4370   -2.4370    0.9950 c3        1 MOL      0.382644
     21 C8          6.2040   -2.8640    0.1800 c         1 MOL      0.537410
     22 O5          5.9000   -4.0260   -0.0160 o         1 MOL     -0.564267
     23 C9          7.2510   -2.5790    2.4950 c3        1 MOL     -0.408691
     24 C10         8.4430   -2.0950    3.4190 c3        1 MOL      0.056216
     25 C11         9.6770   -3.0540    3.2330 c3        1 MOL      0.041927
     26 C12        10.8370   -2.5760    4.1720 c3        1 MOL     -0.107030
     27 N3         11.3450   -1.2190    3.9260 n4        1 MOL     -0.248415
     28 H8          7.6440   -0.3560    1.1590 hn        1 MOL      0.253723
     29 H9          8.1230   -3.2340    0.7100 h1        1 MOL     -0.028101
     30 H10         6.9050   -3.5920    2.7190 hc        1 MOL      0.125420
     31 H11         6.4170   -1.9000    2.6390 hc        1 MOL      0.125420
     32 H12         8.1250   -2.2860    4.4460 hc        1 MOL     -0.014508
     33 H13         8.6920   -1.0420    3.2820 hc        1 MOL     -0.014508
     34 H14        10.0560   -3.0170    2.2160 hc        1 MOL      0.059808
     35 H15         9.4470   -4.1030    3.4640 hc        1 MOL      0.059808
     36 H16        11.6750   -3.2810    4.1770 hx        1 MOL      0.113818
     37 H17        10.5580   -2.5790    5.2250 hx        1 MOL      0.113818
     38 H18        12.1230   -0.9830    4.5180 hn        1 MOL      0.251902
     39 H19        11.6550   -1.0580    2.9820 hn        1 MOL      0.251902
     40 H20        10.6910   -0.5040    4.2300 hn        1 MOL      0.251902
     41 N4          5.4340   -1.8900   -0.3400 n         1 MOL     -0.288311
     42 C13         4.0240   -2.0150   -0.4440 c3        1 MOL     -0.124656
     43 C14         3.5850   -2.1380   -1.9200 c         1 MOL      0.586215
     44 O6          4.0380   -1.3800   -2.7750 o         1 MOL     -0.485269
     45 C15         3.3410   -0.8510    0.3350 c3        1 MOL      0.079745
     46 C16         1.8130   -1.0590    0.3330 c         1 MOL      0.624272
     47 O7          1.0580   -0.8750   -0.6790 o         1 MOL     -0.723609
     48 O8          1.3100   -1.5900    1.3540 o         1 MOL     -0.723609
     49 H21         5.7620   -0.9410   -0.2100 hn        1 MOL      0.149388
     50 H22         3.6990   -2.8940    0.1240 h1        1 MOL      0.060634
     51 H23         3.5100    0.0990   -0.1620 hc        1 MOL     -0.000065
     52 H24         3.7170   -0.7740    1.3460 hc        1 MOL     -0.000065
     53 N5          2.7200   -3.1380   -2.2360 n         1 MOL     -0.246206
     54 C17         2.2680   -3.5120   -3.5930 c3        1 MOL     -0.412095
     55 C18         1.7600   -2.2990   -4.3210 c         1 MOL      0.693697
     56 O9          1.9590   -2.3090   -5.5310 o         1 MOL     -0.562867
     57 H25         2.3310   -3.6600   -1.4650 hn        1 MOL      0.213335
     58 H26         1.4670   -4.2370   -3.4820 h1        1 MOL      0.184515
     59 H27         3.1650   -3.9090   -4.0780 h1        1 MOL      0.184515
     60 N6          1.1370   -1.3220   -3.6950 n         1 MOL     -0.485644
     61 C19         0.5530   -0.1310   -4.3140 c3        1 MOL     -0.080649
     62 C20         1.0010    1.1780   -3.6240 c         1 MOL      0.548975
     63 O10         0.3530    2.2420   -3.6700 o         1 MOL     -0.552529
     64 C21        -1.0250   -0.2820   -4.2600 c3        1 MOL     -0.142380
     65 C22        -1.5850   -0.4260   -2.8570 c         1 MOL      0.522239
     66 N7         -2.1330    0.6080   -2.3680 n         1 MOL     -0.543530
     67 O11        -1.4550   -1.4650   -2.2260 o         1 MOL     -0.613591
     68 H28         1.0300   -1.4060   -2.6890 hn        1 MOL      0.382612
     69 H29         0.8500   -0.1430   -5.3640 h1        1 MOL      0.148638
     70 H30        -1.3520   -1.1560   -4.8300 hc        1 MOL      0.075593
     71 H31        -1.5570    0.4750   -4.8400 hc        1 MOL      0.075593
     72 H32        -2.3160    1.3370   -3.0430 hn        1 MOL      0.317369
     73 H33        -2.3490    0.5130   -1.3840 hn        1 MOL      0.317369
     74 N8          2.0800    1.1290   -2.7910 n         1 MOL     -0.318196
     75 C23         2.5760    2.3590   -2.1560 c3        1 MOL     -0.071437
     76 C24         1.6150    3.0390   -1.1600 c         1 MOL      0.412870
     77 O12         1.7230    4.3120   -1.0320 o         1 MOL     -0.486298
     78 H34         2.4160    0.2260   -2.4860 hn        1 MOL      0.203636
     79 H35         2.8790    3.0970   -2.8880 h1        1 MOL      0.122223
     80 H36         3.4710    2.0780   -1.6040 h1        1 MOL      0.122223
     81 N9          0.7790    2.1710   -0.4200 n         1 MOL     -0.027000
     82 C25        -0.1120    2.6100    0.6740 c3        1 MOL      0.114174
     83 C26        -1.4440    1.8670    0.7320 c         1 MOL      0.295397
     84 O13        -1.4940    0.6540    0.4300 o         1 MOL     -0.314384
     85 C27         0.6240    2.4350    1.9950 c3        1 MOL      0.055493
     86 C28         1.5750    3.5910    2.3940 ca        1 MOL      0.052545
     87 C29         1.0470    4.6830    3.1030 ca        1 MOL     -0.250413
     88 C30         2.9220    3.5540    2.0110 ca        1 MOL     -0.250413
     89 C31         1.8840    5.8110    3.3970 ca        1 MOL     -0.119721
     90 C32         3.6920    4.7540    2.1570 ca        1 MOL     -0.119721
     91 C33         3.1570    5.8750    2.8940 ca        1 MOL      0.243778
     92 O14         3.8600    7.0340    2.9530 oh        1 MOL     -0.476930
     93 H37         0.6960    1.1990   -0.6650 hn        1 MOL     -0.196070
     94 H38        -0.3330    3.6690    0.5560 h1        1 MOL      0.008931
     95 H39         1.0730    1.4540    2.1540 hc        1 MOL      0.012523
     96 H40        -0.1160    2.3950    2.8030 hc        1 MOL      0.012523
     97 H41         0.0070    4.7320    3.3840 ha        1 MOL      0.124584
     98 H42         3.2770    2.7520    1.3820 ha        1 MOL      0.124584
     99 H43         1.5480    6.6740    3.9590 ha        1 MOL      0.103391
    100 H44         4.6790    4.8480    1.7280 ha        1 MOL      0.103391
    101 H45         3.3430    7.7940    3.2200 ho        1 MOL      0.374977
    102 N10        -2.5690    2.5940    1.0060 n         1 MOL     -0.320651
    103 C34        -3.9480    2.0270    1.2030 c3        1 MOL     -0.104545
    104 C35        -4.7050    1.9880   -0.1050 c         1 MOL      0.043584
    105 O15        -5.3040    0.9400   -0.3980 o         1 MOL     -0.264762
    106 C36        -4.7240    2.6380    2.4700 c3        1 MOL      0.281983
    107 C37        -3.9870    2.3500    3.7820 c3        1 MOL     -0.033716
    108 C38        -6.2240    2.1800    2.5160 c3        1 MOL     -0.291043
    109 C39        -4.2130    3.2690    4.9580 c3        1 MOL     -0.289948
    110 H46        -2.5250    3.5480    1.3350 hn        1 MOL      0.285330
    111 H47        -3.8340    1.0080    1.5810 h1        1 MOL      0.066374
    112 H48        -4.6900    3.7250    2.3460 hc        1 MOL     -0.020656
    113 H49        -2.9620    2.5500    3.4970 hc        1 MOL      0.031083
    114 H50        -4.1380    1.3120    4.0640 hc        1 MOL      0.031083
    115 H51        -6.3790    1.3190    3.1680 hc        1 MOL      0.077644
    116 H52        -6.7860    3.0130    2.9480 hc        1 MOL      0.077644
    117 H53        -6.7380    1.8120    1.6320 hc        1 MOL      0.077644
    118 H54        -5.2330    3.2210    5.3590 hc        1 MOL      0.082496
    119 H55        -3.5780    2.9980    5.7960 hc        1 MOL      0.082496
    120 H56        -4.1090    4.2650    4.5320 hc        1 MOL      0.082496
    121 N11        -4.7210    3.1210   -0.8650 n         1 MOL     -0.069465
    122 C40        -5.5500    3.2910   -2.0420 c3        1 MOL     -0.209280
    123 C41        -7.0010    2.8880   -1.7800 c         1 MOL      0.519134
    124 O16        -7.6240    2.4480   -2.7380 o         1 MOL     -0.483068
    125 C42        -5.5230    4.7290   -2.5610 c3        1 MOL      0.221805
    126 O17        -5.7430    5.7360   -1.5830 oh        1 MOL     -0.657653
    127 H57        -4.0680    3.8770   -0.7050 hn        1 MOL      0.227798
    128 H58        -5.1870    2.5920   -2.7990 h1        1 MOL      0.122670
    129 H59        -6.2000    4.8500   -3.4070 h1        1 MOL      0.042031
    130 H60        -4.6090    4.9240   -3.1080 h1        1 MOL      0.042031
    131 H61        -5.5970    6.6070   -1.9670 ho        1 MOL      0.433917
    132 N12        -7.5540    3.0870   -0.5460 n         1 MOL     -0.312750
    133 C43        -8.8530    2.5270   -0.1430 c3        1 MOL      0.224333
    134 C44        -9.0620    1.0200   -0.4740 c         1 MOL      0.435689
    135 O18       -10.1570    0.6050   -0.7940 o         1 MOL     -0.499164
    136 C45        -9.9840    3.4380   -0.6610 c3        1 MOL     -0.191482
    137 H62        -7.1040    3.5680    0.2110 hn        1 MOL      0.215731
    138 H63        -8.9110    2.5520    0.9410 h1        1 MOL      0.034221
    139 H64       -10.2090    3.3800   -1.7320 hc        1 MOL      0.054587
    140 H65       -10.9010    3.2630   -0.0820 hc        1 MOL      0.054587
    141 H66        -9.6970    4.4650   -0.4230 hc        1 MOL      0.054587
    142 N13        -8.0090    0.1410   -0.3100 n         1 MOL     -0.368069
    143 C46        -7.9610   -1.2750   -0.7510 c3        1 MOL      0.388692
    144 C47        -7.1750   -2.2070    0.2060 c         1 MOL      0.293067
    145 O19        -6.3530   -1.7210    0.9750 o         1 MOL     -0.435485
    146 C48        -7.3350   -1.3400   -2.1210 c3        1 MOL     -0.310749
    147 H67        -7.1030    0.4620   -0.0160 hn        1 MOL      0.027091
    148 H68        -8.9830   -1.6410   -0.8020 h1        1 MOL     -0.008743
    149 H69        -7.4790   -2.3380   -2.5450 hc        1 MOL      0.092926
    150 H70        -7.6830   -0.5710   -2.8110 hc        1 MOL      0.092926
    151 H71        -6.2620   -1.1500   -2.0860 hc        1 MOL      0.092926
    152 N14        -7.2700   -3.5270    0.1880 n         1 MOL     -0.582212
    153 C49        -6.7600   -4.4920    1.1260 c3        1 MOL     -0.086595
    154 C50        -7.2260   -4.1910    2.5110 c         1 MOL      0.450497
    155 O20        -6.7340   -4.8950    3.4170 o         1 MOL     -0.532397
    156 C51        -5.2440   -4.6350    0.9840 c3        1 MOL      0.317282
    157 C52        -4.7790   -5.0740   -0.3840 c3        1 MOL     -0.285503
    158 C53        -3.2590   -5.2260   -0.3910 c         1 MOL      0.709699
    159 O21        -2.5160   -4.2380   -0.3560 o         1 MOL     -0.684378
    160 O22        -2.6880   -6.3370   -0.5430 o         1 MOL     -0.684378
    161 H72        -7.6840   -3.9140   -0.6530 hn        1 MOL      0.358504
    162 H73        -7.1840   -5.4420    0.7900 h1        1 MOL      0.125781
    163 H74        -4.8420   -5.2820    1.7540 hc        1 MOL     -0.060340
    164 H75        -4.8140   -3.6440    1.1400 hc        1 MOL     -0.060340
    165 H76        -5.0670   -4.3210   -1.1170 hc        1 MOL      0.041140
    166 H77        -5.2110   -6.0640   -0.6010 hc        1 MOL      0.041140
    167 N15        -8.0760   -3.2410    2.8510 n         1 MOL     -0.245868
    168 C54        -8.5590   -2.9910    4.2670 c3        1 MOL     -0.126483
    169 H78        -8.0390   -2.1270    4.6800 h1        1 MOL      0.087168
    170 H79        -9.6320   -2.7970    4.2570 h1        1 MOL      0.087168
    171 H80        -8.3520   -3.8670    4.8820 h1        1 MOL      0.087168
    172 H81        -8.4730   -2.6540    2.1280 hn        1 MOL      0.244656
    173 Ca1        -1.1280   -1.9820    0.4160 Ca        1 MOL      1.781006
    174 O23        -1.3180   -4.2000    2.2300 oh        1 MOL     -0.884521
    175 H82        -1.5820   -4.3130    3.1380 ho        1 MOL      0.431653
    176 H83        -1.1110   -5.0750    1.9210 ho        1 MOL      0.431653
    177 O24        -3.7680   -1.3730   -0.2720 oh        1 MOL     -0.884521
    178 H84        -4.3980   -0.7100    0.0180 ho        1 MOL      0.431653
    179 H85        -4.2680   -2.1810   -0.3390 ho        1 MOL      0.431653
    180 O25         0.4290   -4.0390   -0.3600 oh        1 MOL     -0.884521
    181 H86         1.1350   -4.2700    0.2310 ho        1 MOL      0.431653
    182 H87         0.2150   -4.8560   -0.8040 ho        1 MOL      0.431653
    183 O26        -2.2110   -0.9740    2.5730 oh        1 MOL     -0.884521
    184 H88        -1.9350   -0.6110    3.4120 ho        1 MOL      0.431653
    185 H89        -3.1560   -1.0810    2.6580 ho        1 MOL      0.431653
@<TRIPOS>BOND
     1    1    2 1   
     2    1    4 1   
     3    1    5 1   
     4    1    6 1   
     5    2    3 2   
     6    2    7 1   
     7    7    8 1   
     8    7   15 1   
     9    8    9 1   
    10    8   11 1   
    11    8   16 1   
    12    9   10 2   
    13    9   19 1   
    14   11   12 1   
    15   11   17 1   
    16   11   18 1   
    17   12   13 1   
    18   12   14 1   
    19   19   20 1   
    20   19   28 1   
    21   20   21 1   
    22   20   23 1   
    23   20   29 1   
    24   21   22 2   
    25   21   41 1   
    26   23   24 1   
    27   23   30 1   
    28   23   31 1   
    29   24   25 1   
    30   24   32 1   
    31   24   33 1   
    32   25   26 1   
    33   25   34 1   
    34   25   35 1   
    35   26   27 1   
    36   26   36 1   
    37   26   37 1   
    38   27   38 1   
    39   27   39 1   
    40   27   40 1   
    41   41   42 1   
    42   41   49 1   
    43   42   43 1   
    44   42   45 1   
    45   42   50 1   
    46   43   44 2   
    47   43   53 1   
    48   45   46 1   
    49   45   51 1   
    50   45   52 1   
    51   46   47 1   
    52   46   48 1   
    53   53   54 1   
    54   53   57 1   
    55   54   55 1   
    56   54   58 1   
    57   54   59 1   
    58   55   56 2   
    59   55   60 1   
    60   60   61 1   
    61   60   68 1   
    62   61   62 1   
    63   61   64 1   
    64   61   69 1   
    65   62   63 2   
    66   62   74 1   
    67   64   65 1   
    68   64   70 1   
    69   64   71 1   
    70   65   66 1   
    71   65   67 2   
    72   66   72 1   
    73   66   73 1   
    74   74   75 1   
    75   74   78 1   
    76   75   76 1   
    77   75   79 1   
    78   75   80 1   
    79   76   77 2   
    80   76   81 1   
    81   81   82 1   
    82   81   93 1   
    83   82   83 1   
    84   82   85 1   
    85   82   94 1   
    86   83   84 2   
    87   83  102 1   
    88   85   86 1   
    89   85   95 1   
    90   85   96 1   
    91   86   87 ar  
    92   86   88 ar  
    93   87   89 ar  
    94   87   97 1   
    95   88   90 ar  
    96   88   98 1   
    97   89   91 ar  
    98   89   99 1   
    99   90   91 ar  
   100   90  100 1   
   101   91   92 1   
   102   92  101 1   
   103  102  103 1   
   104  102  110 1   
   105  103  104 1   
   106  103  106 1   
   107  103  111 1   
   108  104  105 2   
   109  104  121 1   
   110  106  107 1   
   111  106  108 1   
   112  106  112 1   
   113  107  109 1   
   114  107  113 1   
   115  107  114 1   
   116  108  115 1   
   117  108  116 1   
   118  108  117 1   
   119  109  118 1   
   120  109  119 1   
   121  109  120 1   
   122  121  122 1   
   123  121  127 1   
   124  122  123 1   
   125  122  125 1   
   126  122  128 1   
   127  123  124 2   
   128  123  132 1   
   129  125  126 1   
   130  125  129 1   
   131  125  130 1   
   132  126  131 1   
   133  132  133 1   
   134  132  137 1   
   135  133  134 1   
   136  133  136 1   
   137  133  138 1   
   138  134  135 2   
   139  134  142 1   
   140  136  139 1   
   141  136  140 1   
   142  136  141 1   
   143  142  143 1   
   144  142  147 1   
   145  143  144 1   
   146  143  146 1   
   147  143  148 1   
   148  144  145 2   
   149  144  152 1   
   150  146  149 1   
   151  146  150 1   
   152  146  151 1   
   153  152  153 1   
   154  152  161 1   
   155  153  154 1   
   156  153  156 1   
   157  153  162 1   
   158  154  155 2   
   159  154  167 1   
   160  156  157 1   
   161  156  163 1   
   162  156  164 1   
   163  157  158 1   
   164  157  165 1   
   165  157  166 1   
   166  158  159 1   
   167  158  160 1   
   168  167  168 1   
   169  167  172 1   
   170  168  169 1   
   171  168  170 1   
   172  168  171 1   
   173  174  175 1   
   174  174  176 1   
   175  177  178 1   
   176  177  179 1   
   177  180  181 1   
   178  180  182 1   
   179  183  184 1   
   180  183  185 1   
@<TRIPOS>SUBSTRUCTURE
     1 MOL         1 TEMP              0 ****  ****    0 ROOT
