@<TRIPOS>MOLECULE
MOL
  192   187     1     0     0
SMALL
resp


@<TRIPOS>ATOM
      1 C1          9.6230    0.1640    1.9910 c3        1 MOL     -0.471477
      2 C2          8.5080   -0.1100    0.8770 c         1 MOL      0.715345
      3 O1          7.3360   -0.2910    1.2050 o         1 MOL     -0.613058
      4 H1          9.2360   -0.1190    2.9700 hc        1 MOL      0.119440
      5 H2         10.5120   -0.4270    1.7690 hc        1 MOL      0.119440
      6 H3          9.8810    1.2230    1.9950 hc        1 MOL      0.119440
      7 N1          8.9620   -0.2780   -0.3620 n         1 MOL     -0.600915
      8 C3          8.0960   -0.4440   -1.4850 c3        1 MOL      0.273960
      9 C4          7.5190   -1.8880   -1.7030 c         1 MOL      0.386179
     10 O2          7.7420   -2.5550   -2.7010 o         1 MOL     -0.502016
     11 C5          8.6240    0.2010   -2.8290 c3        1 MOL     -0.207381
     12 C6          9.0900    1.6030   -2.6670 c         1 MOL      0.738129
     13 O3          9.9770    1.8950   -1.7880 o         1 MOL     -0.664040
     14 O4          8.5590    2.4790   -3.2830 o         1 MOL     -0.664040
     15 H4          9.9510   -0.1420   -0.5140 hn        1 MOL      0.300043
     16 H5          7.2090    0.1030   -1.1640 h1        1 MOL      0.053530
     17 H6          7.8290    0.2210   -3.5700 hc        1 MOL      0.044193
     18 H7          9.4330   -0.4190   -3.2090 hc        1 MOL      0.044193
     19 N2          6.7560   -2.2790   -0.6690 n         1 MOL     -0.185302
     20 C7          6.1440   -3.5920   -0.4140 c3        1 MOL      0.337751
     21 C8          4.6300   -3.7070   -0.8070 c         1 MOL      0.327707
     22 O5          4.2810   -4.5770   -1.6620 o         1 MOL     -0.524529
     23 C9          6.3480   -4.1330    1.0060 c3        1 MOL     -0.136899
     24 C10         7.8180   -4.0520    1.5150 c3        1 MOL      0.110140
     25 C11         8.1280   -4.9050    2.6740 c3        1 MOL      0.009615
     26 C12         9.5650   -4.7770    3.1610 c3        1 MOL      0.008998
     27 N3          9.6900   -5.0930    4.5830 n4        1 MOL     -0.384517
     28 H8          6.5910   -1.4970   -0.0600 hn        1 MOL      0.042212
     29 H9          6.6460   -4.2710   -1.1080 h1        1 MOL     -0.006873
     30 H10         6.0380   -5.1800    1.0820 hc        1 MOL      0.012727
     31 H11         5.7440   -3.4730    1.6260 hc        1 MOL      0.012727
     32 H12         8.0710   -3.0160    1.7460 hc        1 MOL     -0.036039
     33 H13         8.5530   -4.2590    0.7310 hc        1 MOL     -0.036039
     34 H14         8.0520   -5.9370    2.3310 hc        1 MOL      0.026704
     35 H15         7.4170   -4.7460    3.4900 hc        1 MOL      0.026704
     36 H16         9.7770   -3.7130    3.0530 hx        1 MOL      0.089587
     37 H17        10.2480   -5.4010    2.5890 hx        1 MOL      0.089587
     38 H18        10.5680   -4.7790    4.9580 hn        1 MOL      0.286010
     39 H19         8.9910   -4.5270    5.0470 hn        1 MOL      0.286010
     40 H20         9.6760   -6.0940    4.7270 hn        1 MOL      0.286010
     41 N4          3.7070   -2.8800   -0.3440 n         1 MOL     -0.280706
     42 C13         3.8180   -1.7470    0.6340 c3        1 MOL     -0.101654
     43 C14         3.9690   -0.4010   -0.0580 c         1 MOL      0.275247
     44 O6          3.8950   -0.3200   -1.2620 o         1 MOL     -0.422343
     45 C15         2.5360   -1.7450    1.5070 c3        1 MOL     -0.043621
     46 C16         1.2730   -2.0700    0.7880 c         1 MOL      0.717607
     47 O7          0.6780   -1.0840    0.3200 o         1 MOL     -0.692859
     48 O8          1.0410   -3.2650    0.5590 o         1 MOL     -0.692859
     49 H21         2.7850   -3.1550   -0.6240 hn        1 MOL      0.331985
     50 H22         4.7120   -1.9060    1.2330 h1        1 MOL      0.136008
     51 H23         2.3410   -0.7780    1.9730 hc        1 MOL     -0.022684
     52 H24         2.6430   -2.5080    2.2760 hc        1 MOL     -0.022684
     53 N5          4.1300    0.6760    0.7470 n         1 MOL     -0.173671
     54 C17         4.2670    2.0470    0.3080 c3        1 MOL     -0.099947
     55 C18         3.0370    2.4600   -0.4730 c         1 MOL      0.440786
     56 O9          1.8980    1.9480   -0.2210 o         1 MOL     -0.529817
     57 H25         4.3410    0.5730    1.7230 hn        1 MOL      0.256904
     58 H26         5.1470    2.1960   -0.3000 h1        1 MOL      0.103932
     59 H27         4.3830    2.7320    1.1510 h1        1 MOL      0.103932
     60 N6          3.2060    3.5270   -1.2750 n         1 MOL     -0.594015
     61 C19         2.0980    4.2910   -1.9090 c3        1 MOL      0.394677
     62 C20         2.4170    5.7940   -2.0190 c         1 MOL      0.466583
     63 O10         3.6040    6.1950   -1.9610 o         1 MOL     -0.512278
     64 C21         1.7580    3.6280   -3.2380 c3        1 MOL     -0.349839
     65 C22         0.3380    3.1850   -3.3670 c         1 MOL      0.901623
     66 O11        -0.3150    2.8460   -2.4040 o         1 MOL     -0.785077
     67 O12        -0.1400    2.9300   -4.5340 o         1 MOL     -0.785077
     68 H28         4.1550    3.8560   -1.3960 hn        1 MOL      0.344637
     69 H29         1.2190    4.2090   -1.2580 h1        1 MOL      0.053551
     70 H30         2.2890    2.7060   -3.4500 hc        1 MOL      0.093469
     71 H31         1.9770    4.3640   -4.0130 hc        1 MOL      0.093469
     72 N7          1.3400    6.6190   -2.0790 n         1 MOL     -0.527714
     73 C23        -0.1340    6.4110   -1.9490 c3        1 MOL      0.025419
     74 C24        -0.6760    6.0600   -0.5720 c         1 MOL      0.583552
     75 O13        -0.0460    6.3290    0.4800 o         1 MOL     -0.526815
     76 H32         1.4620    7.6160   -2.1640 hn        1 MOL      0.333518
     77 H33        -0.4310    5.5760   -2.5880 h1        1 MOL      0.047793
     78 H34        -0.6690    7.3080   -2.2600 h1        1 MOL      0.047793
     79 N8         -1.8700    5.4630   -0.5540 n         1 MOL     -0.597742
     80 C25        -2.5730    4.9710    0.6820 c3        1 MOL     -0.015363
     81 C26        -1.8870    3.7270    1.2180 c         1 MOL      0.907860
     82 O14        -1.4330    2.8370    0.4390 o         1 MOL     -0.754172
     83 C27        -4.0340    4.5790    0.3430 c3        1 MOL      0.420355
     84 C28        -4.8430    4.0610    1.5280 c3        1 MOL     -0.274648
     85 O15        -4.1980    3.6620   -0.7040 oh        1 MOL     -0.625095
     86 H35        -2.2230    5.1840   -1.4590 hn        1 MOL      0.310230
     87 H36        -2.6720    5.7520    1.4350 h1        1 MOL      0.070471
     88 H37        -4.4700    5.5410    0.0720 h1        1 MOL     -0.029233
     89 H38        -3.8280    4.0050   -1.5210 ho        1 MOL      0.394548
     90 H39        -5.9180    3.9950    1.3620 hc        1 MOL      0.070229
     91 H40        -4.4460    3.0480    1.6270 hc        1 MOL      0.070229
     92 H41        -4.6500    4.6770    2.4080 hc        1 MOL      0.070229
     93 N9         -1.6910    3.6070    2.5410 n         1 MOL     -0.679509
     94 C29        -1.0300    2.4970    3.3320 c3        1 MOL     -0.151611
     95 C30        -1.5410    1.0400    2.9480 c         1 MOL      0.725502
     96 O16        -1.2310    0.4840    1.8850 o         1 MOL     -0.629863
     97 C31         0.4840    2.4690    3.1310 c3        1 MOL      0.061238
     98 C32         1.1200    3.8040    3.5230 c3        1 MOL      0.291910
     99 C33         1.1230    1.2470    3.9130 c3        1 MOL     -0.413830
    100 C34         2.5760    4.0120    2.9890 c3        1 MOL     -0.158885
    101 H42        -1.9900    4.4230    3.0750 hn        1 MOL      0.325070
    102 H43        -1.2490    2.6330    4.3940 h1        1 MOL      0.085276
    103 H44         0.5700    2.3070    2.0610 hc        1 MOL      0.086271
    104 H45         1.1760    3.8870    4.6090 hc        1 MOL     -0.062029
    105 H46         0.5380    4.6470    3.1260 hc        1 MOL     -0.062029
    106 H47         2.2020    1.3980    3.9710 hc        1 MOL      0.103184
    107 H48         0.7600    1.1840    4.9320 hc        1 MOL      0.103184
    108 H49         0.9560    0.3160    3.3780 hc        1 MOL      0.103184
    109 H50         2.5120    4.5460    2.0430 hc        1 MOL      0.025374
    110 H51         2.9870    4.5590    3.8380 hc        1 MOL      0.025374
    111 H52         3.1270    3.0700    2.9270 hc        1 MOL      0.025374
    112 N10        -2.2550    0.4710    3.9050 n         1 MOL     -0.395557
    113 C35        -2.5810   -1.0120    4.0190 c3        1 MOL     -0.119922
    114 C36        -3.9390   -1.5390    3.5050 c         1 MOL      0.446769
    115 O17        -4.1920   -2.7310    3.5780 o         1 MOL     -0.530942
    116 C37        -2.1740   -1.6170    5.3240 c3        1 MOL      0.501395
    117 C38        -3.1680   -1.2990    6.4090 c3        1 MOL     -0.305140
    118 O18        -0.8960   -1.0890    5.6740 oh        1 MOL     -0.626238
    119 H53        -2.3890    1.0600    4.7130 hn        1 MOL      0.273314
    120 H54        -1.8690   -1.5190    3.3720 h1        1 MOL      0.113830
    121 H55        -2.0540   -2.6960    5.2870 h1        1 MOL     -0.007985
    122 H56        -0.3290   -1.7870    5.3570 ho        1 MOL      0.377688
    123 H57        -2.8790   -1.8090    7.3280 hc        1 MOL      0.071429
    124 H58        -3.2040   -0.2270    6.6210 hc        1 MOL      0.071429
    125 H59        -4.1600   -1.6800    6.1820 hc        1 MOL      0.071429
    126 N11        -4.7870   -0.6340    3.0190 n         1 MOL     -0.216961
    127 C39        -6.0730   -0.9960    2.4140 c3        1 MOL      0.040808
    128 C40        -5.9570   -0.9640    0.8320 c         1 MOL      0.576465
    129 O19        -5.2090   -0.0620    0.3220 o         1 MOL     -0.493312
    130 C41        -7.1620    0.0210    2.8520 c3        1 MOL      0.262646
    131 C42        -7.6280   -0.3960    4.1920 c3        1 MOL     -0.405101
    132 O20        -6.6050    1.2640    2.9820 oh        1 MOL     -0.583142
    133 H60        -4.6040    0.3540    3.1000 hn        1 MOL      0.125160
    134 H61        -6.3680   -2.0160    2.6590 h1        1 MOL      0.062021
    135 H62        -8.0050    0.1020    2.1680 h1        1 MOL      0.079036
    136 H63        -6.3660    1.3740    3.9070 ho        1 MOL      0.398597
    137 H64        -8.0900    0.4920    4.6290 hc        1 MOL      0.100858
    138 H65        -8.2320   -1.2930    4.0930 hc        1 MOL      0.100858
    139 H66        -6.7240   -0.6530    4.7460 hc        1 MOL      0.100858
    140 N12        -6.6010   -1.9580    0.2110 n         1 MOL     -0.601431
    141 C43        -6.7930   -2.3150   -1.2710 c3        1 MOL      0.343923
    142 C44        -5.5430   -1.9570   -2.0460 c         1 MOL      0.404776
    143 O21        -5.6210   -1.1290   -2.9590 o         1 MOL     -0.486554
    144 C45        -8.1190   -1.5390   -1.6610 c3        1 MOL     -0.791869
    145 C46        -9.2920   -1.9740   -0.7950 c3        1 MOL      0.245884
    146 C47       -10.5460   -1.2220   -1.0560 c3        1 MOL     -0.000039
    147 C48       -11.6610   -1.7230   -0.1950 c3        1 MOL      0.121880
    148 N13       -12.9290   -1.1480   -0.5930 n4        1 MOL     -0.155073
    149 H67        -7.0970   -2.5270    0.8880 hn        1 MOL      0.270112
    150 H68        -7.0620   -3.3660   -1.3620 h1        1 MOL      0.035750
    151 H69        -8.3770   -1.8270   -2.6810 hc        1 MOL      0.260005
    152 H70        -7.9160   -0.4720   -1.5300 hc        1 MOL      0.260005
    153 H71        -9.0200   -1.8730    0.2560 hc        1 MOL     -0.009017
    154 H72        -9.5100   -3.0270   -0.9810 hc        1 MOL     -0.009017
    155 H73       -10.8620   -1.1840   -2.1030 hc        1 MOL      0.009362
    156 H74       -10.2890   -0.2330   -0.7080 hc        1 MOL      0.009362
    157 H75       -11.4330   -1.4880    0.8410 hx        1 MOL      0.017031
    158 H76       -11.5950   -2.8190   -0.2050 hx        1 MOL      0.017031
    159 H77       -12.8370   -0.1450   -0.6480 hn        1 MOL      0.187699
    160 H78       -13.1960   -1.3880   -1.5440 hn        1 MOL      0.187699
    161 H79       -13.7270   -1.3840   -0.0270 hn        1 MOL      0.187699
    162 N14        -4.4660   -2.6260   -1.7280 n         1 MOL     -0.426863
    163 C49        -3.2320   -2.5720   -2.4800 c3        1 MOL      0.282457
    164 C50        -1.9540   -2.5840   -1.6150 c         1 MOL      0.196158
    165 O22        -1.2160   -1.6520   -1.8220 o         1 MOL     -0.458217
    166 C51        -3.1860   -3.6600   -3.5920 c3        1 MOL      0.305845
    167 C52        -4.4690   -3.6370   -4.5320 c3        1 MOL     -0.367812
    168 C53        -4.2830   -4.6480   -5.6710 c         1 MOL      0.740483
    169 O23        -4.1310   -4.2400   -6.8190 o         1 MOL     -0.623529
    170 O24        -4.2080   -5.8730   -5.4580 o         1 MOL     -0.623529
    171 H80        -4.5580   -3.3650   -1.0510 hn        1 MOL      0.252162
    172 H81        -3.1940   -1.6120   -2.9980 h1        1 MOL     -0.019582
    173 H82        -3.1890   -4.6620   -3.1670 hc        1 MOL     -0.044434
    174 H83        -2.2770   -3.6900   -4.2030 hc        1 MOL     -0.044434
    175 H84        -4.5500   -2.6260   -4.9130 hc        1 MOL      0.059547
    176 H85        -5.3390   -4.0010   -3.9890 hc        1 MOL      0.059547
    177 N15        -1.6590   -3.4700   -0.6430 n         1 MOL     -0.174068
    178 C54        -2.1870   -4.8100   -0.3320 c3        1 MOL     -0.128182
    179 H86        -2.4140   -5.3350   -1.2600 h1        1 MOL      0.059579
    180 H87        -1.4410   -5.3730    0.2300 h1        1 MOL      0.059579
    181 H88        -3.0950   -4.7150    0.2630 h1        1 MOL      0.059579
    182 H89        -0.7810   -3.2400   -0.2040 hn        1 MOL      0.255740
    183 Ca1        -0.4590    0.7950   -0.9400 Ca        1 MOL      1.761553
    184 O25         1.5780    0.3210   -2.6580 oh        1 MOL     -0.848544
    185 H90         2.0570   -0.2610   -3.2440 ho        1 MOL      0.420897
    186 H91         2.2020    0.5680   -1.9840 ho        1 MOL      0.420897
    187 O26        -3.0880    0.6780   -1.0160 oh        1 MOL     -0.848544
    188 H92        -3.3130    1.6060   -0.9950 ho        1 MOL      0.420897
    189 H93        -3.8690    0.2360   -0.6640 ho        1 MOL      0.420897
    190 O27        -1.3370    0.5330   -3.7490 oh        1 MOL     -0.848544
    191 H94        -2.0740    0.2240   -4.2560 ho        1 MOL      0.420897
    192 H95        -0.9220    1.1880   -4.3020 ho        1 MOL      0.420897
@<TRIPOS>BOND
     1    1    2 1   
     2    1    4 1   
     3    1    5 1   
     4    1    6 1   
     5    2    3 2   
     6    2    7 1   
     7    7    8 1   
     8    7   15 1   
     9    8    9 1   
    10    8   11 1   
    11    8   16 1   
    12    9   10 2   
    13    9   19 1   
    14   11   12 1   
    15   11   17 1   
    16   11   18 1   
    17   12   13 1   
    18   12   14 1   
    19   19   20 1   
    20   19   28 1   
    21   20   21 1   
    22   20   23 1   
    23   20   29 1   
    24   21   22 2   
    25   21   41 1   
    26   23   24 1   
    27   23   30 1   
    28   23   31 1   
    29   24   25 1   
    30   24   32 1   
    31   24   33 1   
    32   25   26 1   
    33   25   34 1   
    34   25   35 1   
    35   26   27 1   
    36   26   36 1   
    37   26   37 1   
    38   27   38 1   
    39   27   39 1   
    40   27   40 1   
    41   41   42 1   
    42   41   49 1   
    43   42   43 1   
    44   42   45 1   
    45   42   50 1   
    46   43   44 2   
    47   43   53 1   
    48   45   46 1   
    49   45   51 1   
    50   45   52 1   
    51   46   47 1   
    52   46   48 1   
    53   53   54 1   
    54   53   57 1   
    55   54   55 1   
    56   54   58 1   
    57   54   59 1   
    58   55   56 2   
    59   55   60 1   
    60   60   61 1   
    61   60   68 1   
    62   61   62 1   
    63   61   64 1   
    64   61   69 1   
    65   62   63 2   
    66   62   72 1   
    67   64   65 1   
    68   64   70 1   
    69   64   71 1   
    70   65   66 1   
    71   65   67 1   
    72   72   73 1   
    73   72   76 1   
    74   73   74 1   
    75   73   77 1   
    76   73   78 1   
    77   74   75 2   
    78   74   79 1   
    79   79   80 1   
    80   79   86 1   
    81   80   81 1   
    82   80   83 1   
    83   80   87 1   
    84   81   82 2   
    85   81   93 1   
    86   83   84 1   
    87   83   85 1   
    88   83   88 1   
    89   84   90 1   
    90   84   91 1   
    91   84   92 1   
    92   85   89 1   
    93   93   94 1   
    94   93  101 1   
    95   94   95 1   
    96   94   97 1   
    97   94  102 1   
    98   95   96 2   
    99   95  112 1   
   100   97   98 1   
   101   97   99 1   
   102   97  103 1   
   103   98  100 1   
   104   98  104 1   
   105   98  105 1   
   106   99  106 1   
   107   99  107 1   
   108   99  108 1   
   109  100  109 1   
   110  100  110 1   
   111  100  111 1   
   112  112  113 1   
   113  112  119 1   
   114  113  114 1   
   115  113  116 1   
   116  113  120 1   
   117  114  115 2   
   118  114  126 1   
   119  116  117 1   
   120  116  118 1   
   121  116  121 1   
   122  117  123 1   
   123  117  124 1   
   124  117  125 1   
   125  118  122 1   
   126  126  127 1   
   127  126  133 1   
   128  127  128 1   
   129  127  130 1   
   130  127  134 1   
   131  128  129 2   
   132  128  140 1   
   133  130  131 1   
   134  130  132 1   
   135  130  135 1   
   136  131  137 1   
   137  131  138 1   
   138  131  139 1   
   139  132  136 1   
   140  140  141 1   
   141  140  149 1   
   142  141  142 1   
   143  141  144 1   
   144  141  150 1   
   145  142  143 2   
   146  142  162 1   
   147  144  145 1   
   148  144  151 1   
   149  144  152 1   
   150  145  146 1   
   151  145  153 1   
   152  145  154 1   
   153  146  147 1   
   154  146  155 1   
   155  146  156 1   
   156  147  148 1   
   157  147  157 1   
   158  147  158 1   
   159  148  159 1   
   160  148  160 1   
   161  148  161 1   
   162  162  163 1   
   163  162  171 1   
   164  163  164 1   
   165  163  166 1   
   166  163  172 1   
   167  164  165 2   
   168  164  177 1   
   169  166  167 1   
   170  166  173 1   
   171  166  174 1   
   172  167  168 1   
   173  167  175 1   
   174  167  176 1   
   175  168  169 1   
   176  168  170 1   
   177  177  178 1   
   178  177  182 1   
   179  178  179 1   
   180  178  180 1   
   181  178  181 1   
   182  184  185 1   
   183  184  186 1   
   184  187  188 1   
   185  187  189 1   
   186  190  191 1   
   187  190  192 1   
@<TRIPOS>SUBSTRUCTURE
     1 MOL         1 TEMP              0 ****  ****    0 ROOT
