@<TRIPOS>MOLECULE
MOL
  178   175     1     0     0
SMALL
resp


@<TRIPOS>ATOM
      1 C1         -0.9200    7.0030    1.0520 c3        1 MOL     -0.482514
      2 C2         -2.3560    6.6070    0.5180 c         1 MOL      0.738839
      3 O1         -2.7590    7.1390   -0.5300 o         1 MOL     -0.586507
      4 H1         -0.1670    6.3860    0.5610 hc        1 MOL      0.121645
      5 H2         -0.7280    8.0530    0.8340 hc        1 MOL      0.121645
      6 H3         -0.8740    6.8410    2.1290 hc        1 MOL      0.121645
      7 N1         -3.1680    5.8120    1.2520 n         1 MOL     -0.674256
      8 C3         -4.5790    5.5030    0.9350 c3        1 MOL      0.300630
      9 C4         -4.6010    4.2100    0.0930 c         1 MOL      0.531567
     10 O2         -3.8410    3.2580    0.3160 o         1 MOL     -0.569810
     11 C5         -5.3770    5.4100    2.2620 c3        1 MOL     -0.172752
     12 C6         -6.9200    5.2360    1.8980 c         1 MOL      0.672732
     13 O3         -7.6530    4.4930    2.5480 o         1 MOL     -0.693945
     14 O4         -7.3770    5.9120    0.9400 o         1 MOL     -0.693945
     15 H4         -2.8550    5.5380    2.1710 hn        1 MOL      0.310960
     16 H5         -5.0400    6.3540    0.4360 h1        1 MOL      0.011081
     17 H6         -5.2530    6.3730    2.7510 hc        1 MOL      0.012826
     18 H7         -4.9780    4.6940    2.9770 hc        1 MOL      0.012826
     19 N2         -5.7040    4.0600   -0.6180 n         1 MOL     -0.523427
     20 C7         -5.9960    2.9600   -1.5150 c3        1 MOL      0.627822
     21 C8         -4.7790    2.8410   -2.5530 c         1 MOL      0.339872
     22 O5         -4.1100    3.8520   -2.8870 o         1 MOL     -0.535601
     23 C9         -7.3120    3.1780   -2.2130 c3        1 MOL     -0.441634
     24 H8         -6.3480    4.8400   -0.6470 hn        1 MOL      0.234578
     25 H9         -6.0660    2.0000   -1.0080 h1        1 MOL     -0.075758
     26 H10        -7.2640    3.9890   -2.9390 hc        1 MOL      0.099537
     27 H11        -7.5290    2.2880   -2.7840 hc        1 MOL      0.099537
     28 H12        -8.0430    3.3630   -1.4290 hc        1 MOL      0.099537
     29 N3         -4.6230    1.6760   -3.1620 n         1 MOL     -0.354724
     30 C10        -5.1920    0.3360   -2.8750 c3        1 MOL      0.026955
     31 C11        -4.7730   -0.3250   -1.5620 c         1 MOL      0.212565
     32 O6         -3.6660   -0.1490   -1.1650 o         1 MOL     -0.296091
     33 C12        -4.8240   -0.5400   -4.1400 c3        1 MOL     -0.298148
     34 C13        -3.4590   -0.3850   -4.7530 c         1 MOL      0.660072
     35 O7         -2.4310   -0.3420   -4.0500 o         1 MOL     -0.656406
     36 O8         -3.3050   -0.3920   -5.9960 o         1 MOL     -0.656406
     37 H13        -3.9820    1.5870   -3.9380 hn        1 MOL      0.337351
     38 H14        -6.2750    0.3770   -2.8560 h1        1 MOL      0.070755
     39 H15        -5.5670   -0.4530   -4.9360 hc        1 MOL      0.060150
     40 H16        -4.9970   -1.5510   -3.7710 hc        1 MOL      0.060150
     41 N4         -5.7280   -1.0270   -0.8470 n         1 MOL     -0.375619
     42 C14        -5.5010   -1.7920    0.3390 c3        1 MOL      0.122228
     43 C15        -5.5910   -1.0570    1.6400 c         1 MOL      0.476455
     44 O9         -5.6440    0.1360    1.6960 o         1 MOL     -0.439798
     45 H17        -6.6560   -1.1430   -1.2290 hn        1 MOL      0.276325
     46 H18        -4.6020   -2.3890    0.2880 h1        1 MOL      0.011023
     47 H19        -6.3140   -2.5250    0.3670 h1        1 MOL      0.011023
     48 N5         -5.6110   -1.7360    2.7760 n         1 MOL     -0.416486
     49 C16        -5.4030   -3.0850    3.0380 c3        1 MOL      0.202832
     50 C17        -4.0930   -3.6560    2.4850 c         1 MOL      0.512044
     51 O10        -3.1250   -2.9690    2.1850 o         1 MOL     -0.532550
     52 C18        -5.5070   -3.2530    4.5730 c3        1 MOL     -0.341140
     53 C19        -6.8240   -2.8270    5.1190 c         1 MOL      0.665144
     54 N6         -7.7460   -3.7280    5.2980 n         1 MOL     -0.742296
     55 O11        -7.0850   -1.6360    5.3580 o         1 MOL     -0.520237
     56 H20        -5.9750   -1.2600    3.5860 hn        1 MOL      0.260916
     57 H21        -6.2280   -3.6670    2.6080 h1        1 MOL     -0.041678
     58 H22        -4.7110   -2.9000    5.2250 hc        1 MOL      0.095298
     59 H23        -5.4330   -4.3250    4.7230 hc        1 MOL      0.095298
     60 H24        -7.5520   -4.6850    5.0160 hn        1 MOL      0.358640
     61 H25        -8.6110   -3.4260    5.7030 hn        1 MOL      0.358640
     62 N7         -4.0710   -4.9690    2.4650 n         1 MOL     -0.336173
     63 C20        -2.8700   -5.7850    2.3150 c3        1 MOL     -0.129319
     64 C21        -2.1660   -5.9530    0.9670 c         1 MOL      0.391883
     65 O12        -1.1780   -6.7470    0.8970 o         1 MOL     -0.546321
     66 H26        -4.9150   -5.4390    2.7350 hn        1 MOL      0.243345
     67 H27        -3.0310   -6.7540    2.7880 h1        1 MOL      0.111698
     68 H28        -2.1490   -5.3110    2.9850 h1        1 MOL      0.111698
     69 N8         -2.5280   -5.1600   -0.0340 n         1 MOL     -0.094093
     70 C22        -1.7940   -4.9320   -1.2750 c3        1 MOL     -0.077799
     71 C23        -0.7180   -3.7960   -1.0940 c         1 MOL      1.064547
     72 O13        -0.8410   -2.7270   -1.6980 o         1 MOL     -0.860965
     73 C24        -2.8330   -4.4540   -2.3660 c3        1 MOL      0.378458
     74 C25        -2.3550   -4.3420   -3.7450 c3        1 MOL     -0.414708
     75 O14        -3.9320   -5.3880   -2.3420 oh        1 MOL     -0.690099
     76 H29        -3.3770   -4.6270    0.1530 hn        1 MOL      0.061406
     77 H30        -1.3750   -5.8960   -1.5680 h1        1 MOL      0.106220
     78 H31        -3.3500   -3.5480   -2.0590 h1        1 MOL      0.031874
     79 H32        -4.6350   -5.1280   -2.9320 ho        1 MOL      0.397740
     80 H33        -2.2130   -5.3270   -4.1880 hc        1 MOL      0.120461
     81 H34        -3.2280   -3.9390   -4.2630 hc        1 MOL      0.120461
     82 H35        -1.4360   -3.7910   -3.8890 hc        1 MOL      0.120461
     83 N9          0.1750   -3.9810   -0.1170 n         1 MOL     -1.124200
     84 C26         1.3340   -3.0580    0.0630 c3        1 MOL      0.661097
     85 C27         2.3180   -3.1550   -1.1630 c         1 MOL      0.317357
     86 O15         2.4870   -4.2340   -1.7590 o         1 MOL     -0.560609
     87 C28         2.1280   -3.3510    1.3660 c3        1 MOL     -0.184356
     88 C29         3.3640   -2.3890    1.6190 c3        1 MOL      0.235917
     89 C30         1.1770   -3.2570    2.5500 c3        1 MOL     -0.058053
     90 C31         4.0450   -2.2450    3.0150 c3        1 MOL     -0.249384
     91 H36         0.1260   -4.7780    0.4970 hn        1 MOL      0.438490
     92 H37         0.9100   -2.0560    0.1160 h1        1 MOL      0.001292
     93 H38         2.5320   -4.3690    1.3020 hc        1 MOL      0.027378
     94 H39         2.9260   -1.4060    1.4420 hc        1 MOL     -0.069377
     95 H40         4.1450   -2.5330    0.8830 hc        1 MOL     -0.069377
     96 H41         0.7180   -2.2790    2.6320 hc        1 MOL      0.027262
     97 H42         0.3500   -3.9770    2.5670 hc        1 MOL      0.027262
     98 H43         1.6140   -3.4330    3.5310 hc        1 MOL      0.027262
     99 H44         4.8500   -1.5110    2.9240 hc        1 MOL      0.046773
    100 H45         3.2850   -1.8640    3.7020 hc        1 MOL      0.046773
    101 H46         4.4770   -3.1960    3.3250 hc        1 MOL      0.046773
    102 N10         2.8600   -2.0340   -1.5690 n         1 MOL     -0.054950
    103 C32         3.7090   -1.8520   -2.7540 c3        1 MOL      0.022788
    104 C33         5.2110   -1.6330   -2.3810 c         1 MOL      0.326515
    105 O16         6.1360   -1.9580   -3.1360 o         1 MOL     -0.531889
    106 C34         3.1620   -0.6890   -3.5320 c3        1 MOL     -0.089723
    107 C35         1.6590   -0.4660   -3.5640 c         1 MOL      0.662688
    108 O17         1.1910    0.6270   -3.3950 o         1 MOL     -0.690264
    109 O18         0.8840   -1.4270   -3.6180 o         1 MOL     -0.690264
    110 H47         2.6360   -1.2130   -1.0180 hn        1 MOL     -0.040396
    111 H48         3.7090   -2.7580   -3.3640 h1        1 MOL      0.099599
    112 H49         3.7040   -0.6300   -4.4770 hc        1 MOL      0.019290
    113 H50         3.4480    0.1670   -2.9270 hc        1 MOL      0.019290
    114 N11         5.4420   -1.0800   -1.1950 n         1 MOL     -0.206422
    115 C36         6.7750   -0.5820   -0.7720 c3        1 MOL      0.309716
    116 C37         6.6350    0.8040   -0.0630 c         1 MOL      0.170346
    117 O19         6.8950    0.9290    1.1390 o         1 MOL     -0.387800
    118 C38         7.4420   -1.6880    0.0610 c3        1 MOL     -0.374888
    119 C39         8.7910   -1.3180    0.5970 ca        1 MOL      0.107034
    120 C40         9.8590   -0.8460   -0.2870 ca        1 MOL     -0.136416
    121 C41         9.0360   -1.4140    1.9810 ca        1 MOL     -0.136416
    122 C42        11.1680   -0.5810    0.2600 ca        1 MOL     -0.125295
    123 C43        10.2840   -1.1330    2.5100 ca        1 MOL     -0.125295
    124 C44        11.3390   -0.7030    1.6970 ca        1 MOL     -0.159693
    125 H51         4.6300   -0.9110   -0.6120 hn        1 MOL      0.190421
    126 H52         7.3770   -0.4220   -1.6690 h1        1 MOL      0.022527
    127 H53         7.4790   -2.6140   -0.5320 hc        1 MOL      0.127556
    128 H54         6.7930   -2.0150    0.8720 hc        1 MOL      0.127556
    129 H55         9.7200   -0.7810   -1.3570 ha        1 MOL      0.114888
    130 H56         8.2680   -1.7930    2.6480 ha        1 MOL      0.114888
    131 H57        11.9770   -0.3090   -0.3960 ha        1 MOL      0.108189
    132 H58        10.4150   -1.2030    3.5830 ha        1 MOL      0.108189
    133 H59        12.2240   -0.3470    2.1910 ha        1 MOL      0.109975
    134 N12         6.2370    1.8690   -0.7900 n         1 MOL      0.008102
    135 C45         6.2910    3.1890   -0.2060 c3        1 MOL      0.135320
    136 C46         5.2560    3.6320    0.8280 c         1 MOL      0.284935
    137 O20         5.3410    4.7450    1.3690 o         1 MOL     -0.506406
    138 C47         6.3230    4.1710   -1.4190 c3        1 MOL     -0.356809
    139 C48         6.7270    3.2790   -2.6120 c3        1 MOL      0.109484
    140 C49         6.1340    1.9570   -2.1930 c3        1 MOL     -0.010711
    141 H60         7.2670    3.1870    0.2850 h1        1 MOL      0.037285
    142 H61         5.3260    4.6000   -1.5800 hc        1 MOL      0.116761
    143 H62         7.0240    4.9670   -1.1930 hc        1 MOL      0.116761
    144 H63         6.4860    3.6360   -3.6110 hc        1 MOL     -0.005140
    145 H64         7.8010    3.1470   -2.7200 hc        1 MOL     -0.005140
    146 H65         5.0930    1.8260   -2.5040 h1        1 MOL      0.035494
    147 H66         6.7180    1.2750   -2.8100 h1        1 MOL      0.035494
    148 N13         4.3610    2.7270    1.1520 n         1 MOL     -0.120454
    149 C50         3.6300    2.7700    2.4600 c3        1 MOL     -0.230619
    150 C51         4.6500    2.6460    3.6100 c         1 MOL      0.506869
    151 O21         4.5620    3.3190    4.6030 o         1 MOL     -0.553097
    152 C52         2.3560    1.8100    2.5460 c3        1 MOL      0.044254
    153 C53         1.4980    1.9050    1.2580 c3        1 MOL      0.042453
    154 C54         1.9710    0.9170    0.0950 c         1 MOL      0.453177
    155 O22         1.1140    0.2840   -0.5160 o         1 MOL     -0.502708
    156 O23         3.1730    0.8680   -0.1640 o         1 MOL     -0.502708
    157 H67         4.2510    1.8600    0.6400 hn        1 MOL      0.186893
    158 H68         3.2060    3.7660    2.5810 h1        1 MOL      0.130785
    159 H69         1.7650    1.9610    3.4500 hc        1 MOL     -0.000586
    160 H70         2.6780    0.7740    2.5560 hc        1 MOL     -0.000586
    161 H71         1.3770    2.9070    0.8500 hc        1 MOL     -0.012776
    162 H72         0.4660    1.6790    1.4980 hc        1 MOL     -0.012776
    163 N14         5.7590    1.9230    3.4590 n         1 MOL     -0.135115
    164 C55         6.8210    1.9560    4.4700 c3        1 MOL     -0.302636
    165 H73         7.7100    1.4620    4.0780 h1        1 MOL      0.107777
    166 H74         7.0590    2.9910    4.7140 h1        1 MOL      0.107777
    167 H75         6.4850    1.4390    5.3680 h1        1 MOL      0.107777
    168 H76         5.8470    1.3760    2.6120 hn        1 MOL      0.151570
    169 Ca1        -0.9690   -0.2010   -1.9510 Ca        1 MOL      1.742872
    170 O24        -1.3950    2.2560   -3.1490 oh        1 MOL     -0.930354
    171 H77        -0.9160    2.7840   -3.7860 ho        1 MOL      0.444546
    172 H78        -1.9960    2.8690   -2.7350 ho        1 MOL      0.444546
    173 O25        -1.5790   -1.2820    0.6440 oh        1 MOL     -0.930354
    174 H79        -1.3680   -1.6240    1.5060 ho        1 MOL      0.444546
    175 H80        -2.4380   -1.6560    0.4310 ho        1 MOL      0.444546
    176 O26        -1.7170    1.6320   -0.0980 oh        1 MOL     -0.930354
    177 H81        -1.3330    1.5450    0.7740 ho        1 MOL      0.444546
    178 H82        -2.5170    2.1340    0.0400 ho        1 MOL      0.444546
@<TRIPOS>BOND
     1    1    2 1   
     2    1    4 1   
     3    1    5 1   
     4    1    6 1   
     5    2    3 2   
     6    2    7 1   
     7    7    8 1   
     8    7   15 1   
     9    8    9 1   
    10    8   11 1   
    11    8   16 1   
    12    9   10 2   
    13    9   19 1   
    14   11   12 1   
    15   11   17 1   
    16   11   18 1   
    17   12   13 1   
    18   12   14 1   
    19   19   20 1   
    20   19   24 1   
    21   20   21 1   
    22   20   23 1   
    23   20   25 1   
    24   21   22 2   
    25   21   29 1   
    26   23   26 1   
    27   23   27 1   
    28   23   28 1   
    29   29   30 1   
    30   29   37 1   
    31   30   31 1   
    32   30   33 1   
    33   30   38 1   
    34   31   32 2   
    35   31   41 1   
    36   33   34 1   
    37   33   39 1   
    38   33   40 1   
    39   34   35 1   
    40   34   36 1   
    41   41   42 1   
    42   41   45 1   
    43   42   43 1   
    44   42   46 1   
    45   42   47 1   
    46   43   44 2   
    47   43   48 1   
    48   48   49 1   
    49   48   56 1   
    50   49   50 1   
    51   49   52 1   
    52   49   57 1   
    53   50   51 2   
    54   50   62 1   
    55   52   53 1   
    56   52   58 1   
    57   52   59 1   
    58   53   54 1   
    59   53   55 2   
    60   54   60 1   
    61   54   61 1   
    62   62   63 1   
    63   62   66 1   
    64   63   64 1   
    65   63   67 1   
    66   63   68 1   
    67   64   65 2   
    68   64   69 1   
    69   69   70 1   
    70   69   76 1   
    71   70   71 1   
    72   70   73 1   
    73   70   77 1   
    74   71   72 2   
    75   71   83 1   
    76   73   74 1   
    77   73   75 1   
    78   73   78 1   
    79   74   80 1   
    80   74   81 1   
    81   74   82 1   
    82   75   79 1   
    83   83   84 1   
    84   83   91 1   
    85   84   85 1   
    86   84   87 1   
    87   84   92 1   
    88   85   86 2   
    89   85  102 1   
    90   87   88 1   
    91   87   89 1   
    92   87   93 1   
    93   88   90 1   
    94   88   94 1   
    95   88   95 1   
    96   89   96 1   
    97   89   97 1   
    98   89   98 1   
    99   90   99 1   
   100   90  100 1   
   101   90  101 1   
   102  102  103 1   
   103  102  110 1   
   104  103  104 1   
   105  103  106 1   
   106  103  111 1   
   107  104  105 2   
   108  104  114 1   
   109  106  107 1   
   110  106  112 1   
   111  106  113 1   
   112  107  108 1   
   113  107  109 1   
   114  114  115 1   
   115  114  125 1   
   116  115  116 1   
   117  115  118 1   
   118  115  126 1   
   119  116  117 2   
   120  116  134 1   
   121  118  119 1   
   122  118  127 1   
   123  118  128 1   
   124  119  120 ar  
   125  119  121 ar  
   126  120  122 ar  
   127  120  129 1   
   128  121  123 ar  
   129  121  130 1   
   130  122  124 ar  
   131  122  131 1   
   132  123  124 ar  
   133  123  132 1   
   134  124  133 1   
   135  134  135 1   
   136  134  140 1   
   137  135  136 1   
   138  135  138 1   
   139  135  141 1   
   140  136  137 2   
   141  136  148 1   
   142  138  139 1   
   143  138  142 1   
   144  138  143 1   
   145  139  140 1   
   146  139  144 1   
   147  139  145 1   
   148  140  146 1   
   149  140  147 1   
   150  148  149 1   
   151  148  157 1   
   152  149  150 1   
   153  149  152 1   
   154  149  158 1   
   155  150  151 2   
   156  150  163 1   
   157  152  153 1   
   158  152  159 1   
   159  152  160 1   
   160  153  154 1   
   161  153  161 1   
   162  153  162 1   
   163  154  155 1   
   164  154  156 1   
   165  163  164 1   
   166  163  168 1   
   167  164  165 1   
   168  164  166 1   
   169  164  167 1   
   170  170  171 1   
   171  170  172 1   
   172  173  174 1   
   173  173  175 1   
   174  176  177 1   
   175  176  178 1   
@<TRIPOS>SUBSTRUCTURE
     1 MOL         1 TEMP              0 ****  ****    0 ROOT
