@<TRIPOS>MOLECULE
MOL
  192   187     1     0     0
SMALL
resp


@<TRIPOS>ATOM
      1 C1        -10.2240   -0.5530   -2.2980 c3        1 MOL     -0.412492
      2 C2         -8.9310   -0.1320   -1.6390 c         1 MOL      0.844442
      3 O1         -8.1390    0.5250   -2.2500 o         1 MOL     -0.584807
      4 H1        -10.2000   -1.6250   -2.4930 hc        1 MOL      0.098734
      5 H2        -11.0600   -0.3230   -1.6390 hc        1 MOL      0.098734
      6 H3        -10.3440   -0.0160   -3.2400 hc        1 MOL      0.098734
      7 N1         -8.7130   -0.5600   -0.3580 n         1 MOL     -0.890981
      8 C3         -7.5370   -0.1530    0.3620 c3        1 MOL      0.432744
      9 C4         -6.8590   -1.3630    1.0300 c         1 MOL      0.529487
     10 O2         -6.6000   -1.3760    2.1950 o         1 MOL     -0.462932
     11 C5         -7.9560    0.9720    1.4270 c3        1 MOL     -0.166544
     12 C6         -9.1190    1.9180    0.9790 c         1 MOL      0.742879
     13 O3         -8.7900    3.0330    0.4820 o         1 MOL     -0.653229
     14 O4        -10.3060    1.5480    1.0830 o         1 MOL     -0.653229
     15 H4         -9.4200   -1.1120    0.0980 hn        1 MOL      0.365106
     16 H5         -6.7700    0.2230   -0.3120 h1        1 MOL     -0.031724
     17 H6         -7.1100    1.5360    1.8160 hc        1 MOL      0.006979
     18 H7         -8.2940    0.5060    2.3550 hc        1 MOL      0.006979
     19 N2         -6.5890   -2.4350    0.2500 n         1 MOL     -0.562359
     20 C7         -6.0930   -3.7340    0.7500 c3        1 MOL      0.248375
     21 C8         -4.7350   -3.6530    1.3800 c         1 MOL      0.462344
     22 O5         -4.4770   -4.3150    2.4160 o         1 MOL     -0.535751
     23 C9         -6.1290   -4.6920   -0.4320 c3        1 MOL     -0.233586
     24 C10        -7.4880   -4.7350   -1.0750 c3        1 MOL      0.115651
     25 C11        -7.8700   -5.8000   -2.1220 c3        1 MOL      0.071250
     26 C12        -9.3860   -5.6080   -2.4290 c3        1 MOL      0.058765
     27 N3         -9.9000   -6.7160   -3.2010 n4        1 MOL     -0.199317
     28 H8         -6.8140   -2.3390   -0.7300 hn        1 MOL      0.261376
     29 H9         -6.6960   -4.1270    1.5730 h1        1 MOL      0.056738
     30 H10        -5.8630   -5.6940   -0.0890 hc        1 MOL      0.065154
     31 H11        -5.4480   -4.4050   -1.2290 hc        1 MOL      0.065154
     32 H12        -7.6140   -3.7620   -1.5480 hc        1 MOL     -0.024091
     33 H13        -8.2220   -4.8070   -0.2710 hc        1 MOL     -0.024091
     34 H14        -7.7150   -6.8270   -1.7960 hc        1 MOL      0.001913
     35 H15        -7.2640   -5.6910   -3.0160 hc        1 MOL      0.001913
     36 H16        -9.5150   -4.7870   -3.1420 hx        1 MOL      0.040650
     37 H17        -9.9080   -5.4420   -1.4870 hx        1 MOL      0.040650
     38 H18        -9.2200   -7.4030   -3.4810 hn        1 MOL      0.231936
     39 H19       -10.4420   -7.3370   -2.6130 hn        1 MOL      0.231936
     40 H20       -10.4480   -6.3930   -3.9820 hn        1 MOL      0.231936
     41 N4         -3.7110   -2.9270    0.8610 n         1 MOL     -0.513378
     42 C13        -3.6790   -1.8410   -0.0860 c3        1 MOL      0.134886
     43 C14        -3.6710   -0.5540    0.8080 c         1 MOL      0.101923
     44 O6         -3.5640   -0.5520    2.0090 o         1 MOL     -0.295966
     45 C15        -2.4620   -2.0110   -0.9740 c3        1 MOL     -0.355365
     46 C16        -1.1130   -2.1910   -0.3200 c         1 MOL      0.742034
     47 O7         -0.6920   -1.2580    0.4090 o         1 MOL     -0.674013
     48 O8         -0.5110   -3.2660   -0.4420 o         1 MOL     -0.674013
     49 H21        -2.8460   -3.1160    1.3490 hn        1 MOL      0.393458
     50 H22        -4.5560   -1.7670   -0.7350 h1        1 MOL      0.091564
     51 H23        -2.4440   -1.2820   -1.7880 hc        1 MOL      0.078834
     52 H24        -2.6210   -2.9370   -1.5380 hc        1 MOL      0.078834
     53 N5         -3.9790    0.5250    0.0510 n         1 MOL     -0.072940
     54 C17        -4.0840    1.9190    0.4870 c3        1 MOL     -0.289087
     55 C18        -2.7950    2.5960    0.9130 c         1 MOL      0.743412
     56 O9         -1.7140    1.9730    0.7700 o         1 MOL     -0.637698
     57 H25        -4.1810    0.3710   -0.9290 hn        1 MOL      0.208407
     58 H26        -4.8280    1.9410    1.2880 h1        1 MOL      0.115603
     59 H27        -4.4500    2.5330   -0.3420 h1        1 MOL      0.115603
     60 N6         -2.9250    3.8030    1.4680 n         1 MOL     -0.543658
     61 C19        -1.8320    4.6970    2.0170 c3        1 MOL      0.238182
     62 C20        -2.2760    6.1520    1.7410 c         1 MOL      0.509713
     63 O10        -3.4490    6.4680    1.4000 o         1 MOL     -0.526968
     64 C21        -1.5450    4.3800    3.5470 c3        1 MOL     -0.377493
     65 C22        -0.9310    3.0240    3.6260 c         1 MOL      0.819200
     66 O11         0.2060    2.8400    3.1100 o         1 MOL     -0.682089
     67 O12        -1.5430    2.1900    4.3110 o         1 MOL     -0.682089
     68 H28        -3.8290    4.2360    1.5800 hn        1 MOL      0.310093
     69 H29        -0.9180    4.5680    1.4370 h1        1 MOL      0.039754
     70 H30        -2.5010    4.4440    4.0730 hc        1 MOL      0.093614
     71 H31        -0.8230    5.0540    3.9900 hc        1 MOL      0.093614
     72 N7         -1.3880    7.1150    1.8770 n         1 MOL     -0.535508
     73 C23         0.1750    6.9920    1.8840 c3        1 MOL      0.050002
     74 C24         0.6890    6.4060    0.5510 c         1 MOL      0.574584
     75 O13         0.1330    6.6910   -0.5530 o         1 MOL     -0.499614
     76 H32        -1.6920    8.0750    1.8360 hn        1 MOL      0.347689
     77 H33         0.5480    6.3180    2.6600 h1        1 MOL      0.046155
     78 H34         0.6750    7.9470    2.0220 h1        1 MOL      0.046155
     79 N8          1.7750    5.6010    0.6460 n         1 MOL     -0.546198
     80 C25         2.3550    4.8740   -0.5010 c3        1 MOL     -0.260475
     81 C26         1.5670    3.6760   -0.8580 c         1 MOL      0.935036
     82 O14         1.1040    2.9570    0.0050 o         1 MOL     -0.790671
     83 C27         3.8030    4.5340   -0.2020 c3        1 MOL      0.503139
     84 C28         4.5460    3.9180   -1.4220 c3        1 MOL     -0.375928
     85 O15         3.9440    3.6570    0.8660 oh        1 MOL     -0.577348
     86 H35         2.1160    5.3160    1.5530 hn        1 MOL      0.298338
     87 H36         2.3280    5.5030   -1.3910 h1        1 MOL      0.109295
     88 H37         4.3870    5.3850    0.1580 h1        1 MOL     -0.011729
     89 H38         3.4460    4.0780    1.5660 ho        1 MOL      0.356772
     90 H39         5.5800    4.2300   -1.2690 hc        1 MOL      0.102207
     91 H40         4.4120    2.8320   -1.3750 hc        1 MOL      0.102207
     92 H41         4.1890    4.4200   -2.3190 hc        1 MOL      0.102207
     93 N9          1.4680    3.3900   -2.1610 n         1 MOL     -0.680046
     94 C29         0.6590    2.2650   -2.7420 c3        1 MOL      0.074980
     95 C30         1.0870    0.8770   -2.2090 c         1 MOL      0.437617
     96 O16         1.0560    0.5100   -1.0470 o         1 MOL     -0.483209
     97 C31        -0.8750    2.5340   -2.5750 c3        1 MOL      0.089378
     98 C32        -1.1740    3.9090   -3.1670 c3        1 MOL      0.074405
     99 C33        -1.7750    1.4040   -3.1320 c3        1 MOL     -0.279430
    100 C34        -2.5190    4.5750   -2.8640 c3        1 MOL     -0.283769
    101 H42         1.9370    3.9810   -2.8320 hn        1 MOL      0.331712
    102 H43         0.9540    2.2870   -3.7930 h1        1 MOL      0.048457
    103 H44        -1.1550    2.5520   -1.5220 hc        1 MOL      0.087907
    104 H45        -1.0130    3.8230   -4.2340 hc        1 MOL     -0.014202
    105 H46        -0.4310    4.6820   -3.0010 hc        1 MOL     -0.014202
    106 H47        -1.3270    0.4060   -3.0890 hc        1 MOL      0.061606
    107 H48        -2.7930    1.5540   -2.7740 hc        1 MOL      0.061606
    108 H49        -1.8270    1.6740   -4.1800 hc        1 MOL      0.061606
    109 H50        -2.6090    4.9320   -1.8360 hc        1 MOL      0.082287
    110 H51        -2.6310    5.4470   -3.5090 hc        1 MOL      0.082287
    111 H52        -3.3130    3.8380   -2.9400 hc        1 MOL      0.082287
    112 N10         1.6830    0.0880   -3.1770 n         1 MOL     -0.183095
    113 C35         2.1490   -1.2920   -2.9080 c3        1 MOL     -0.285060
    114 C36         3.6710   -1.4960   -3.0730 c         1 MOL      0.641402
    115 O17         4.0920   -2.6400   -3.1870 o         1 MOL     -0.551540
    116 C37         1.3100   -2.2670   -3.6480 c3        1 MOL      0.421888
    117 C38         1.3310   -2.1330   -5.1550 c3        1 MOL     -0.285946
    118 O18        -0.0720   -2.2040   -3.2560 oh        1 MOL     -0.599553
    119 H53         1.5780    0.4020   -4.1290 hn        1 MOL      0.213536
    120 H54         2.1140   -1.5980   -1.8620 h1        1 MOL      0.153899
    121 H55         1.5070   -3.3010   -3.3550 h1        1 MOL      0.027743
    122 H56        -0.1630   -2.7890   -2.5100 ho        1 MOL      0.357081
    123 H57         1.1490   -1.1760   -5.6480 hc        1 MOL      0.065489
    124 H58         2.3640   -2.3880   -5.3610 hc        1 MOL      0.065489
    125 H59         0.6890   -2.8890   -5.6010 hc        1 MOL      0.065489
    126 N11         4.4730   -0.3490   -3.2050 n         1 MOL     -0.244306
    127 C39         5.9090   -0.4180   -3.4440 c3        1 MOL     -0.215003
    128 C40         6.5490   -0.7200   -2.0810 c         1 MOL      0.532999
    129 O19         6.9200    0.1780   -1.3330 o         1 MOL     -0.463284
    130 C41         6.4880    0.8160   -4.1960 c3        1 MOL      0.394047
    131 C42         6.0780    0.7740   -5.6370 c3        1 MOL     -0.334894
    132 O20         5.9850    2.0620   -3.7520 oh        1 MOL     -0.631787
    133 H60         3.9430    0.4780   -3.4310 hn        1 MOL      0.117237
    134 H61         6.0660   -1.2340   -4.1520 h1        1 MOL      0.091912
    135 H62         7.5640    0.8500   -4.0530 h1        1 MOL      0.065634
    136 H63         5.2530    2.3720   -4.2990 ho        1 MOL      0.408776
    137 H64         6.4000   -0.1300   -6.1450 hc        1 MOL      0.079926
    138 H65         4.9870    0.7540   -5.6430 hc        1 MOL      0.079926
    139 H66         6.4900    1.7020   -6.0300 hc        1 MOL      0.079926
    140 N12         6.6060   -2.0180   -1.6730 n         1 MOL     -0.567128
    141 C43         6.7050   -2.5820   -0.2830 c3        1 MOL      0.070728
    142 C44         5.4170   -2.1960    0.5600 c         1 MOL      0.687689
    143 O21         4.7250   -1.2580    0.2470 o         1 MOL     -0.476942
    144 C45         7.9270   -1.9830    0.3450 c3        1 MOL     -0.284482
    145 C46         9.2750   -2.2740   -0.4300 c3        1 MOL      0.237198
    146 C47        10.5180   -1.7560    0.2940 c3        1 MOL     -0.058501
    147 C48        11.7820   -1.7390   -0.5870 c3        1 MOL      0.128530
    148 N13        12.9610   -1.1330    0.0580 n4        1 MOL     -0.219495
    149 H67         6.2160   -2.6890   -2.3170 hn        1 MOL      0.313805
    150 H68         6.8190   -3.6540   -0.4750 h1        1 MOL      0.083540
    151 H69         7.9820   -2.4020    1.3500 hc        1 MOL      0.089596
    152 H70         7.7890   -0.9080    0.3950 hc        1 MOL      0.089596
    153 H71         9.2030   -1.8860   -1.4480 hc        1 MOL     -0.037401
    154 H72         9.4200   -3.3510   -0.4920 hc        1 MOL     -0.037401
    155 H73        10.7060   -2.3610    1.1780 hc        1 MOL      0.023093
    156 H74        10.2250   -0.7430    0.5600 hc        1 MOL      0.023093
    157 H75        11.6100   -1.1470   -1.4850 hx        1 MOL      0.034293
    158 H76        11.9630   -2.7780   -0.8690 hx        1 MOL      0.034293
    159 H77        13.0830   -1.5630    0.9630 hn        1 MOL      0.224036
    160 H78        13.8230   -1.3770   -0.4130 hn        1 MOL      0.224036
    161 H79        12.7950   -0.1450    0.2180 hn        1 MOL      0.224036
    162 N14         5.0900   -2.9610    1.6180 n         1 MOL     -0.759874
    163 C49         3.9890   -2.6060    2.4780 c3        1 MOL      0.554896
    164 C50         2.6250   -2.3500    1.7970 c         1 MOL      0.075726
    165 O22         2.0370   -1.2910    2.0910 o         1 MOL     -0.532691
    166 C51         3.8840   -3.5450    3.6880 c3        1 MOL     -0.267426
    167 C52         4.8900   -3.3700    4.8020 c3        1 MOL     -0.285492
    168 C53         5.0480   -4.6000    5.7260 c         1 MOL      0.694174
    169 O23         5.7980   -5.5800    5.3790 o         1 MOL     -0.638333
    170 O24         4.4230   -4.6150    6.7990 o         1 MOL     -0.638333
    171 H80         5.8600   -3.4370    2.0700 hn        1 MOL      0.332093
    172 H81         4.3320   -1.6460    2.8610 h1        1 MOL     -0.004405
    173 H82         3.8130   -4.5690    3.3230 hc        1 MOL      0.144710
    174 H83         2.9280   -3.2720    4.1270 hc        1 MOL      0.144710
    175 H84         4.6140   -2.4460    5.3080 hc        1 MOL      0.065905
    176 H85         5.8540   -3.0810    4.3770 hc        1 MOL      0.065905
    177 N15         1.9440   -3.2090    1.0380 n         1 MOL     -0.080781
    178 C54         2.3240   -4.5860    0.7730 c3        1 MOL     -0.037304
    179 H86         2.7360   -4.6620   -0.2340 h1        1 MOL      0.022843
    180 H87         3.0760   -4.9010    1.4970 h1        1 MOL      0.022843
    181 H88         1.4470   -5.2280    0.8560 h1        1 MOL      0.022843
    182 H89         1.0390   -2.9010    0.6970 hn        1 MOL      0.263355
    183 Ca1         0.6490    0.8230    1.4050 Ca        1 MOL      1.768050
    184 O25        -1.0220   -0.2460    3.0800 oh        1 MOL     -0.808033
    185 H90        -1.9020   -0.5770    2.9240 ho        1 MOL      0.376592
    186 H91        -1.1520    0.4990    3.6740 ho        1 MOL      0.376592
    187 O26         3.1910    0.9450    0.8710 oh        1 MOL     -0.808033
    188 H92         3.7820    1.7030    0.9720 ho        1 MOL      0.376592
    189 H93         3.7590    0.2400    0.5810 ho        1 MOL      0.376592
    190 O27         2.3480    0.8590    4.1310 oh        1 MOL     -0.808033
    191 H94         3.3080    0.8320    4.0960 ho        1 MOL      0.376592
    192 H95         2.1570    1.5550    4.7720 ho        1 MOL      0.376592
@<TRIPOS>BOND
     1    1    2 1   
     2    1    4 1   
     3    1    5 1   
     4    1    6 1   
     5    2    3 2   
     6    2    7 1   
     7    7    8 1   
     8    7   15 1   
     9    8    9 1   
    10    8   11 1   
    11    8   16 1   
    12    9   10 2   
    13    9   19 1   
    14   11   12 1   
    15   11   17 1   
    16   11   18 1   
    17   12   13 1   
    18   12   14 1   
    19   19   20 1   
    20   19   28 1   
    21   20   21 1   
    22   20   23 1   
    23   20   29 1   
    24   21   22 2   
    25   21   41 1   
    26   23   24 1   
    27   23   30 1   
    28   23   31 1   
    29   24   25 1   
    30   24   32 1   
    31   24   33 1   
    32   25   26 1   
    33   25   34 1   
    34   25   35 1   
    35   26   27 1   
    36   26   36 1   
    37   26   37 1   
    38   27   38 1   
    39   27   39 1   
    40   27   40 1   
    41   41   42 1   
    42   41   49 1   
    43   42   43 1   
    44   42   45 1   
    45   42   50 1   
    46   43   44 2   
    47   43   53 1   
    48   45   46 1   
    49   45   51 1   
    50   45   52 1   
    51   46   47 1   
    52   46   48 1   
    53   53   54 1   
    54   53   57 1   
    55   54   55 1   
    56   54   58 1   
    57   54   59 1   
    58   55   56 2   
    59   55   60 1   
    60   60   61 1   
    61   60   68 1   
    62   61   62 1   
    63   61   64 1   
    64   61   69 1   
    65   62   63 2   
    66   62   72 1   
    67   64   65 1   
    68   64   70 1   
    69   64   71 1   
    70   65   66 1   
    71   65   67 1   
    72   72   73 1   
    73   72   76 1   
    74   73   74 1   
    75   73   77 1   
    76   73   78 1   
    77   74   75 2   
    78   74   79 1   
    79   79   80 1   
    80   79   86 1   
    81   80   81 1   
    82   80   83 1   
    83   80   87 1   
    84   81   82 2   
    85   81   93 1   
    86   83   84 1   
    87   83   85 1   
    88   83   88 1   
    89   84   90 1   
    90   84   91 1   
    91   84   92 1   
    92   85   89 1   
    93   93   94 1   
    94   93  101 1   
    95   94   95 1   
    96   94   97 1   
    97   94  102 1   
    98   95   96 2   
    99   95  112 1   
   100   97   98 1   
   101   97   99 1   
   102   97  103 1   
   103   98  100 1   
   104   98  104 1   
   105   98  105 1   
   106   99  106 1   
   107   99  107 1   
   108   99  108 1   
   109  100  109 1   
   110  100  110 1   
   111  100  111 1   
   112  112  113 1   
   113  112  119 1   
   114  113  114 1   
   115  113  116 1   
   116  113  120 1   
   117  114  115 2   
   118  114  126 1   
   119  116  117 1   
   120  116  118 1   
   121  116  121 1   
   122  117  123 1   
   123  117  124 1   
   124  117  125 1   
   125  118  122 1   
   126  126  127 1   
   127  126  133 1   
   128  127  128 1   
   129  127  130 1   
   130  127  134 1   
   131  128  129 2   
   132  128  140 1   
   133  130  131 1   
   134  130  132 1   
   135  130  135 1   
   136  131  137 1   
   137  131  138 1   
   138  131  139 1   
   139  132  136 1   
   140  140  141 1   
   141  140  149 1   
   142  141  142 1   
   143  141  144 1   
   144  141  150 1   
   145  142  143 2   
   146  142  162 1   
   147  144  145 1   
   148  144  151 1   
   149  144  152 1   
   150  145  146 1   
   151  145  153 1   
   152  145  154 1   
   153  146  147 1   
   154  146  155 1   
   155  146  156 1   
   156  147  148 1   
   157  147  157 1   
   158  147  158 1   
   159  148  159 1   
   160  148  160 1   
   161  148  161 1   
   162  162  163 1   
   163  162  171 1   
   164  163  164 1   
   165  163  166 1   
   166  163  172 1   
   167  164  165 2   
   168  164  177 1   
   169  166  167 1   
   170  166  173 1   
   171  166  174 1   
   172  167  168 1   
   173  167  175 1   
   174  167  176 1   
   175  168  169 1   
   176  168  170 1   
   177  177  178 1   
   178  177  182 1   
   179  178  179 1   
   180  178  180 1   
   181  178  181 1   
   182  184  185 1   
   183  184  186 1   
   184  187  188 1   
   185  187  189 1   
   186  190  191 1   
   187  190  192 1   
@<TRIPOS>SUBSTRUCTURE
     1 MOL         1 TEMP              0 ****  ****    0 ROOT
