@<TRIPOS>MOLECULE
MOL
  195   189     1     0     0
SMALL
resp


@<TRIPOS>ATOM
      1 C1          4.1170   -6.8940   -0.8460 c3        1 MOL     -0.216877
      2 C2          4.1770   -5.3810   -0.3980 c         1 MOL      0.660122
      3 O1          3.8390   -5.0150    0.7000 o         1 MOL     -0.581191
      4 H1          3.8740   -6.9480   -1.9070 hc        1 MOL      0.047810
      5 H2          5.0850   -7.3630   -0.6720 hc        1 MOL      0.047810
      6 H3          3.3510   -7.4140   -0.2710 hc        1 MOL      0.047810
      7 N1          4.4990   -4.5190   -1.3120 n         1 MOL     -0.528226
      8 C3          4.5300   -3.0120   -1.0170 c3        1 MOL      0.295585
      9 C4          3.1990   -2.3550   -1.0700 c         1 MOL      0.079581
     10 O2          3.1330   -1.1410   -0.8530 o         1 MOL     -0.283955
     11 C5          5.5200   -2.1970   -1.9170 c3        1 MOL     -0.268891
     12 C6          5.6860   -2.6900   -3.4040 c         1 MOL      0.702193
     13 O3          6.3720   -1.9660   -4.1950 o         1 MOL     -0.707302
     14 O4          5.2790   -3.8090   -3.7990 o         1 MOL     -0.707302
     15 H4          4.8290   -4.7390   -2.2440 hn        1 MOL      0.281459
     16 H5          4.8650   -2.7840    0.0000 h1        1 MOL      0.074934
     17 H6          6.4690   -2.3910   -1.4080 hc        1 MOL      0.071076
     18 H7          5.2950   -1.1340   -2.0060 hc        1 MOL      0.071076
     19 N2          2.0770   -3.1560   -1.2620 n         1 MOL     -0.143667
     20 C7          0.6530   -2.7630   -1.1240 c3        1 MOL      0.072695
     21 C8          0.0040   -3.0330    0.2340 c         1 MOL      0.458620
     22 O5          0.3300   -4.0530    0.8230 o         1 MOL     -0.527175
     23 C9         -0.0430   -3.4510   -2.3120 c3        1 MOL      0.038848
     24 C10         0.3290   -2.7680   -3.6700 c3        1 MOL      0.005176
     25 C11        -0.4250   -3.3260   -4.9170 c3        1 MOL     -0.102992
     26 C12         0.2280   -2.8070   -6.2370 c3        1 MOL      0.241543
     27 N3         -0.7920   -2.7210   -7.3200 n4        1 MOL     -0.556955
     28 H8          2.2180   -4.1240   -1.4960 hn        1 MOL      0.190141
     29 H9          0.6270   -1.6790   -1.2300 h1        1 MOL      0.112741
     30 H10        -1.1080   -3.4170   -2.1160 hc        1 MOL      0.004498
     31 H11         0.2410   -4.4960   -2.3200 hc        1 MOL      0.004498
     32 H12         1.3910   -2.9040   -3.8810 hc        1 MOL     -0.006721
     33 H13         0.1100   -1.7050   -3.5860 hc        1 MOL     -0.006721
     34 H14        -1.4720   -3.0370   -4.8610 hc        1 MOL      0.041631
     35 H15        -0.4020   -4.4180   -4.9690 hc        1 MOL      0.041631
     36 H16         0.9320   -3.5180   -6.6610 hx        1 MOL      0.051195
     37 H17         0.8450   -1.9140   -6.1690 hx        1 MOL      0.051195
     38 H18        -0.8500   -3.6220   -7.7720 hn        1 MOL      0.370919
     39 H19        -1.6900   -2.5460   -6.8880 hn        1 MOL      0.370919
     40 H20        -0.5900   -1.9560   -7.9540 hn        1 MOL      0.370919
     41 N4         -0.6650   -2.1320    0.9740 n         1 MOL     -0.307956
     42 C13        -1.0820   -0.7660    0.6940 c3        1 MOL     -0.028168
     43 C14        -1.7970   -0.5990   -0.6830 c         1 MOL      0.320628
     44 O6         -1.2360    0.1040   -1.5570 o         1 MOL     -0.584394
     45 C15        -0.0050    0.4250    0.9080 c3        1 MOL     -0.084139
     46 C16         0.3380    0.4280    2.3580 c         1 MOL      0.727078
     47 O7         -0.5280    0.1860    3.2590 o         1 MOL     -0.759463
     48 O8          1.3690    0.9790    2.7610 o         1 MOL     -0.759463
     49 H21        -1.0170   -2.5230    1.8420 hn        1 MOL      0.209326
     50 H22        -1.8280   -0.5360    1.4580 h1        1 MOL      0.058263
     51 H23        -0.3810    1.3990    0.6000 hc        1 MOL      0.069828
     52 H24         0.9420    0.1340    0.4540 hc        1 MOL      0.069828
     53 N5         -2.7940   -1.4150   -1.1180 n         1 MOL     -0.200344
     54 C17        -3.8260   -2.0530   -0.2320 c3        1 MOL     -0.084685
     55 C18        -4.8020   -2.9070   -1.0470 c         1 MOL      0.456930
     56 O9         -4.5410   -3.1320   -2.2230 o         1 MOL     -0.544271
     57 H25        -3.0500   -1.4500   -2.0880 hn        1 MOL      0.266414
     58 H26        -4.3500   -1.2730    0.3030 h1        1 MOL      0.088003
     59 H27        -3.3330   -2.7770    0.4210 h1        1 MOL      0.088003
     60 N6         -5.8370   -3.4490   -0.4110 n         1 MOL     -0.408088
     61 C19        -6.4030   -3.1500    0.8870 c3        1 MOL      0.131639
     62 C20        -7.2610   -1.9400    0.9110 c         1 MOL      0.677481
     63 O10        -7.4790   -1.2740   -0.1350 o         1 MOL     -0.545264
     64 C21        -7.2380   -4.3630    1.3550 c3        1 MOL     -0.354558
     65 C22        -8.4150   -4.8160    0.4850 c         1 MOL      0.733319
     66 O11        -9.4460   -5.3690    0.9870 o         1 MOL     -0.667590
     67 O12        -8.3770   -4.6590   -0.7440 o         1 MOL     -0.667590
     68 H28        -6.4370   -4.0870   -0.9210 hn        1 MOL      0.297673
     69 H29        -5.5790   -2.9510    1.5590 h1        1 MOL     -0.011996
     70 H30        -7.5940   -4.0890    2.3490 hc        1 MOL      0.065453
     71 H31        -6.5350   -5.1820    1.4910 hc        1 MOL      0.065453
     72 N7         -7.7310   -1.4740    2.1320 n         1 MOL     -0.495887
     73 C23        -8.6120   -0.3060    2.2100 c3        1 MOL     -0.148624
     74 C24        -8.0000    0.9890    1.8500 c         1 MOL      0.419904
     75 O13        -8.7630    1.9590    1.6580 o         1 MOL     -0.533481
     76 H32        -7.4150   -1.9400    2.9750 hn        1 MOL      0.294072
     77 H33        -9.0530   -0.1970    3.2020 h1        1 MOL      0.148354
     78 H34        -9.5450   -0.4820    1.6660 h1        1 MOL      0.148354
     79 N8         -6.6810    1.0700    1.6010 n         1 MOL     -0.180992
     80 C25        -6.0500    2.3120    1.1430 c3        1 MOL     -0.280923
     81 C26        -4.8110    1.9970    0.2640 c         1 MOL      0.592710
     82 O14        -3.9580    1.1750    0.6530 o         1 MOL     -0.472856
     83 C27        -5.8410    3.2740    2.3340 c3        1 MOL      0.442447
     84 C28        -5.2540    4.6740    2.0650 c3        1 MOL     -0.209011
     85 O15        -5.0550    2.6600    3.3700 oh        1 MOL     -0.628768
     86 H35        -6.1500    0.2630    1.8820 hn        1 MOL      0.149737
     87 H36        -6.8020    2.8060    0.5210 h1        1 MOL      0.130447
     88 H37        -6.8120    3.4550    2.7790 h1        1 MOL     -0.006204
     89 H38        -5.5290    1.8340    3.4160 ho        1 MOL      0.345367
     90 H39        -5.9870    5.3090    1.5780 hc        1 MOL      0.058577
     91 H40        -4.9780    5.0690    3.0460 hc        1 MOL      0.058577
     92 H41        -4.3830    4.5170    1.4270 hc        1 MOL      0.058577
     93 N9         -4.7890    2.5450   -0.9410 n         1 MOL     -0.365727
     94 C29        -4.0360    1.9160   -2.0600 c3        1 MOL     -0.031360
     95 C30        -2.7960    2.7290   -2.4310 c         1 MOL      0.503644
     96 O16        -2.3020    2.6290   -3.6190 o         1 MOL     -0.582430
     97 C31        -4.9470    1.5120   -3.2590 c3        1 MOL      0.055409
     98 C32        -5.4150    2.6610   -4.2110 c3        1 MOL      0.107365
     99 C33        -6.0890    0.5840   -2.8260 c3        1 MOL     -0.237492
    100 C34        -6.3040    3.6990   -3.5570 c3        1 MOL     -0.203376
    101 H42        -5.4480    3.2400   -1.2570 hn        1 MOL      0.239873
    102 H43        -3.6680    0.9430   -1.7310 h1        1 MOL      0.121418
    103 H44        -4.3890    0.8730   -3.9310 hc        1 MOL     -0.018480
    104 H45        -5.9340    2.2650   -5.0810 hc        1 MOL      0.000865
    105 H46        -4.5430    3.2260   -4.5370 hc        1 MOL      0.000865
    106 H47        -6.8200    1.1970   -2.2780 hc        1 MOL      0.086630
    107 H48        -6.6220    0.1850   -3.6840 hc        1 MOL      0.086630
    108 H49        -5.6480   -0.2430   -2.2730 hc        1 MOL      0.086630
    109 H50        -7.1610    3.1490   -3.1800 hc        1 MOL      0.042117
    110 H51        -5.7710    4.1990   -2.7490 hc        1 MOL      0.042117
    111 H52        -6.5370    4.3890   -4.3710 hc        1 MOL      0.042117
    112 N10        -2.2520    3.5000   -1.4780 n         1 MOL     -0.131919
    113 C35        -1.0960    4.4700   -1.6420 c3        1 MOL     -0.222052
    114 C36         0.2580    3.8300   -2.0270 c         1 MOL      0.415989
    115 O17         1.1470    4.4890   -2.5370 o         1 MOL     -0.563559
    116 C37        -0.9990    5.2780   -0.3270 c3        1 MOL      0.241156
    117 C38        -0.6680    4.3970    0.8460 c3        1 MOL     -0.056206
    118 O18        -2.2240    5.8380    0.1180 oh        1 MOL     -0.610756
    119 H53        -2.7130    3.5390   -0.5860 hn        1 MOL      0.063189
    120 H54        -1.3180    5.2550   -2.3750 h1        1 MOL      0.125948
    121 H55        -0.1980    6.0060   -0.4320 h1        1 MOL      0.044144
    122 H56        -2.6630    6.2030   -0.6460 ho        1 MOL      0.388221
    123 H57        -0.6520    4.9230    1.8030 hc        1 MOL      0.049093
    124 H58        -1.3860    3.5800    0.9440 hc        1 MOL      0.049093
    125 H59         0.3380    4.0080    0.7490 hc        1 MOL      0.049093
    126 N11         0.4370    2.5150   -1.8450 n         1 MOL      0.053899
    127 C39         1.7700    1.7930   -1.9120 c3        1 MOL      0.089483
    128 C40         2.8440    2.2880   -0.8730 c         1 MOL      0.261008
    129 O19         2.6770    3.2710   -0.1340 o         1 MOL     -0.490686
    130 C41         2.4030    1.8090   -3.3100 c3        1 MOL      0.227188
    131 C42         1.4260    1.5350   -4.4260 c3        1 MOL     -0.382442
    132 O20         3.4630    0.9150   -3.5420 oh        1 MOL     -0.628002
    133 H60        -0.3380    2.0540   -1.4000 hn        1 MOL      0.082690
    134 H61         1.5570    0.7320   -1.8070 h1        1 MOL      0.007109
    135 H62         2.7300    2.8290   -3.5270 h1        1 MOL      0.048991
    136 H63         3.2260    0.4380   -4.3350 ho        1 MOL      0.405344
    137 H64         1.8970    1.9720   -5.3020 hc        1 MOL      0.092445
    138 H65         1.1170    0.5090   -4.6440 hc        1 MOL      0.092445
    139 H66         0.5180    2.1250   -4.2740 hc        1 MOL      0.092445
    140 N12         4.0200    1.5700   -0.7500 n         1 MOL     -0.024964
    141 C43         5.3210    2.0190   -0.1820 c3        1 MOL     -0.069174
    142 C44         5.8960    1.0820    0.8670 c         1 MOL      0.439074
    143 O21         6.9370    1.4120    1.4800 o         1 MOL     -0.568650
    144 C45         6.3240    2.2180   -1.3210 c3        1 MOL     -0.300051
    145 C46         5.9410    3.2760   -2.4300 c3        1 MOL     -0.035132
    146 C47         6.3100    4.6960   -1.9080 c3        1 MOL      0.036743
    147 C48         6.1220    5.7480   -3.0600 c3        1 MOL      0.109606
    148 N13         6.6070    7.1110   -2.6960 n4        1 MOL     -0.438593
    149 H67         3.9290    0.7000   -1.2590 hn        1 MOL      0.225359
    150 H68         5.0520    2.9430    0.3390 h1        1 MOL      0.100210
    151 H69         6.5120    1.2660   -1.8180 hc        1 MOL      0.111870
    152 H70         7.2920    2.4940   -0.9090 hc        1 MOL      0.111870
    153 H71         4.8670    3.1730   -2.6110 hc        1 MOL      0.051021
    154 H72         6.4280    3.0090   -3.3680 hc        1 MOL      0.051021
    155 H73         7.3960    4.6780   -1.7590 hc        1 MOL      0.027675
    156 H74         5.8240    4.9950   -0.9740 hc        1 MOL      0.027675
    157 H75         5.0760    5.8350   -3.3420 hx        1 MOL      0.055974
    158 H76         6.5510    5.2820   -3.9480 hx        1 MOL      0.055974
    159 H77         7.5750    7.1580   -2.4040 hn        1 MOL      0.330347
    160 H78         6.5540    7.6470   -3.5490 hn        1 MOL      0.330347
    161 H79         6.0300    7.5500   -1.9930 hn        1 MOL      0.330347
    162 N14         5.3020   -0.0550    1.0930 n         1 MOL     -0.128338
    163 C49         5.5720   -0.8120    2.3080 c3        1 MOL      0.052759
    164 C50         6.6450   -1.8610    2.0340 c         1 MOL      0.130666
    165 O22         6.3640   -3.0840    1.9320 o         1 MOL     -0.439656
    166 C51         4.2430   -1.3150    2.8420 c3        1 MOL      0.463240
    167 C52         4.4140   -1.9830    4.2280 c3        1 MOL     -0.998019
    168 C53         4.5410   -0.9250    5.3410 c         1 MOL      0.728567
    169 O23         3.5430   -0.3110    5.7030 o         1 MOL     -0.672132
    170 O24         5.6140   -0.5570    5.7870 o         1 MOL     -0.672132
    171 H80         4.4590   -0.3070    0.5980 hn        1 MOL     -0.057458
    172 H81         5.9470   -0.0840    3.0320 h1        1 MOL      0.158005
    173 H82         3.6130   -1.9140    2.1880 hc        1 MOL     -0.056560
    174 H83         3.6210   -0.4210    2.8910 hc        1 MOL     -0.056560
    175 H84         5.3290   -2.5790    4.2780 hc        1 MOL      0.268796
    176 H85         3.6240   -2.6960    4.4540 hc        1 MOL      0.268796
    177 N15         7.8590   -1.3990    1.8300 n         1 MOL     -0.065808
    178 C54         8.9400   -2.1750    1.2910 c3        1 MOL     -0.165647
    179 H86         8.5420   -2.9320    0.6160 h1        1 MOL      0.083572
    180 H87         9.6190   -1.5220    0.7420 h1        1 MOL      0.083572
    181 H88         9.4800   -2.6610    2.1030 h1        1 MOL      0.083572
    182 H89         7.9230   -0.3990    1.9670 hn        1 MOL      0.190619
    183 Ca1         1.1010    0.1540    5.3510 Ca        1 MOL      1.716486
    184 O25        -0.5100    2.3860    5.3290 oh        1 MOL     -0.906845
    185 H90        -0.7500    2.7890    6.1670 ho        1 MOL      0.450744
    186 H91        -1.2900    2.4900    4.7860 ho        1 MOL      0.450744
    187 O26         0.8080    1.2520    7.8840 oh        1 MOL     -0.906845
    188 H92         1.4490    1.9480    8.0170 ho        1 MOL      0.450744
    189 H93         0.2560    1.2680    8.6690 ho        1 MOL      0.450744
    190 O27         2.3110    2.6820    5.5360 oh        1 MOL     -0.906845
    191 H94         2.8660    2.6980    4.7470 ho        1 MOL      0.450744
    192 H95         1.7170    3.4170    5.4230 ho        1 MOL      0.450744
    193 O28         0.7050   -2.3150    4.2210 oh        1 MOL     -0.906845
    194 H96         1.1140   -3.0240    3.7290 ho        1 MOL      0.450744
    195 H97        -0.2300   -2.5370    4.2220 ho        1 MOL      0.450744
@<TRIPOS>BOND
     1    1    2 1   
     2    1    4 1   
     3    1    5 1   
     4    1    6 1   
     5    2    3 2   
     6    2    7 1   
     7    7    8 1   
     8    7   15 1   
     9    8    9 1   
    10    8   11 1   
    11    8   16 1   
    12    9   10 2   
    13    9   19 1   
    14   11   12 1   
    15   11   17 1   
    16   11   18 1   
    17   12   13 1   
    18   12   14 1   
    19   19   20 1   
    20   19   28 1   
    21   20   21 1   
    22   20   23 1   
    23   20   29 1   
    24   21   22 2   
    25   21   41 1   
    26   23   24 1   
    27   23   30 1   
    28   23   31 1   
    29   24   25 1   
    30   24   32 1   
    31   24   33 1   
    32   25   26 1   
    33   25   34 1   
    34   25   35 1   
    35   26   27 1   
    36   26   36 1   
    37   26   37 1   
    38   27   38 1   
    39   27   39 1   
    40   27   40 1   
    41   41   42 1   
    42   41   49 1   
    43   42   43 1   
    44   42   45 1   
    45   42   50 1   
    46   43   44 2   
    47   43   53 1   
    48   45   46 1   
    49   45   51 1   
    50   45   52 1   
    51   46   47 1   
    52   46   48 1   
    53   53   54 1   
    54   53   57 1   
    55   54   55 1   
    56   54   58 1   
    57   54   59 1   
    58   55   56 2   
    59   55   60 1   
    60   60   61 1   
    61   60   68 1   
    62   61   62 1   
    63   61   64 1   
    64   61   69 1   
    65   62   63 2   
    66   62   72 1   
    67   64   65 1   
    68   64   70 1   
    69   64   71 1   
    70   65   66 1   
    71   65   67 1   
    72   72   73 1   
    73   72   76 1   
    74   73   74 1   
    75   73   77 1   
    76   73   78 1   
    77   74   75 2   
    78   74   79 1   
    79   79   80 1   
    80   79   86 1   
    81   80   81 1   
    82   80   83 1   
    83   80   87 1   
    84   81   82 2   
    85   81   93 1   
    86   83   84 1   
    87   83   85 1   
    88   83   88 1   
    89   84   90 1   
    90   84   91 1   
    91   84   92 1   
    92   85   89 1   
    93   93   94 1   
    94   93  101 1   
    95   94   95 1   
    96   94   97 1   
    97   94  102 1   
    98   95   96 2   
    99   95  112 1   
   100   97   98 1   
   101   97   99 1   
   102   97  103 1   
   103   98  100 1   
   104   98  104 1   
   105   98  105 1   
   106   99  106 1   
   107   99  107 1   
   108   99  108 1   
   109  100  109 1   
   110  100  110 1   
   111  100  111 1   
   112  112  113 1   
   113  112  119 1   
   114  113  114 1   
   115  113  116 1   
   116  113  120 1   
   117  114  115 2   
   118  114  126 1   
   119  116  117 1   
   120  116  118 1   
   121  116  121 1   
   122  117  123 1   
   123  117  124 1   
   124  117  125 1   
   125  118  122 1   
   126  126  127 1   
   127  126  133 1   
   128  127  128 1   
   129  127  130 1   
   130  127  134 1   
   131  128  129 2   
   132  128  140 1   
   133  130  131 1   
   134  130  132 1   
   135  130  135 1   
   136  131  137 1   
   137  131  138 1   
   138  131  139 1   
   139  132  136 1   
   140  140  141 1   
   141  140  149 1   
   142  141  142 1   
   143  141  144 1   
   144  141  150 1   
   145  142  143 2   
   146  142  162 1   
   147  144  145 1   
   148  144  151 1   
   149  144  152 1   
   150  145  146 1   
   151  145  153 1   
   152  145  154 1   
   153  146  147 1   
   154  146  155 1   
   155  146  156 1   
   156  147  148 1   
   157  147  157 1   
   158  147  158 1   
   159  148  159 1   
   160  148  160 1   
   161  148  161 1   
   162  162  163 1   
   163  162  171 1   
   164  163  164 1   
   165  163  166 1   
   166  163  172 1   
   167  164  165 2   
   168  164  177 1   
   169  166  167 1   
   170  166  173 1   
   171  166  174 1   
   172  167  168 1   
   173  167  175 1   
   174  167  176 1   
   175  168  169 1   
   176  168  170 1   
   177  177  178 1   
   178  177  182 1   
   179  178  179 1   
   180  178  180 1   
   181  178  181 1   
   182  184  185 1   
   183  184  186 1   
   184  187  188 1   
   185  187  189 1   
   186  190  191 1   
   187  190  192 1   
   188  193  194 1   
   189  193  195 1   
@<TRIPOS>SUBSTRUCTURE
     1 MOL         1 TEMP              0 ****  ****    0 ROOT
