@<TRIPOS>MOLECULE
MOL
  192   187     1     0     0
SMALL
resp


@<TRIPOS>ATOM
      1 C1         11.8920    5.8770   -2.0470 c3        1 MOL     -0.377524
      2 C2         11.8970    4.5840   -1.1590 c         1 MOL      0.690015
      3 O1         12.9570    3.9850   -0.8880 o         1 MOL     -0.579483
      4 H1         12.9100    6.1020   -2.3670 hc        1 MOL      0.103040
      5 H2         11.2640    5.7150   -2.9230 hc        1 MOL      0.103040
      6 H3         11.5000    6.7140   -1.4690 hc        1 MOL      0.103040
      7 N1         10.7460    4.1210   -0.6940 n         1 MOL     -0.403747
      8 C3         10.4980    3.0740    0.3130 c3        1 MOL     -0.291288
      9 C4          9.2800    2.2280   -0.0960 c         1 MOL      0.766967
     10 O2          8.1490    2.7180   -0.2850 o         1 MOL     -0.727359
     11 C5         10.2900    3.6520    1.6900 c3        1 MOL      0.223955
     12 C6          9.4890    4.9710    1.7290 c         1 MOL      0.690833
     13 O3          8.4350    5.1000    1.0690 o         1 MOL     -0.699721
     14 O4          9.9510    5.7850    2.5140 o         1 MOL     -0.699721
     15 H4          9.9450    4.6710   -0.9780 hn        1 MOL      0.155935
     16 H5         11.3740    2.4370    0.3980 h1        1 MOL      0.125017
     17 H6         11.2650    3.8010    2.1570 hc        1 MOL     -0.017966
     18 H7          9.8110    2.8440    2.2390 hc        1 MOL     -0.017966
     19 N2          9.4560    0.8840   -0.1520 n         1 MOL     -0.539850
     20 C7          8.4360   -0.1140   -0.4810 c3        1 MOL      0.177291
     21 C8          7.5450   -0.5430    0.7170 c         1 MOL      0.671449
     22 O5          8.0480   -0.8780    1.7870 o         1 MOL     -0.553150
     23 C9          9.1800   -1.3000   -1.0170 c3        1 MOL     -0.314270
     24 C10         8.3200   -1.9830   -2.0310 c3        1 MOL      0.071195
     25 C11         8.8950   -3.0550   -2.9240 c3        1 MOL      0.113443
     26 C12         7.8880   -3.7120   -3.9080 c3        1 MOL     -0.448600
     27 N3          6.7580   -4.2830   -3.1950 n4        1 MOL     -0.183822
     28 H8         10.3650    0.4640   -0.0350 hn        1 MOL      0.310135
     29 H9          7.8300    0.3210   -1.2760 h1        1 MOL      0.068480
     30 H10         9.4360   -1.9860   -0.2050 hc        1 MOL      0.091794
     31 H11        10.1570   -1.0440   -1.4370 hc        1 MOL      0.091794
     32 H12         7.8630   -1.2140   -2.6670 hc        1 MOL     -0.013685
     33 H13         7.4570   -2.4290   -1.5300 hc        1 MOL     -0.013685
     34 H14         9.2980   -3.8230   -2.2620 hc        1 MOL      0.039368
     35 H15         9.7630   -2.6880   -3.4770 hc        1 MOL      0.039368
     36 H16         8.4280   -4.4780   -4.4560 hx        1 MOL      0.210497
     37 H17         7.5800   -2.8520   -4.5100 hx        1 MOL      0.210497
     38 H18         6.4170   -3.6820   -2.4600 hn        1 MOL      0.279684
     39 H19         5.9630   -4.3940   -3.8090 hn        1 MOL      0.279684
     40 H20         7.0160   -5.2000   -2.8430 hn        1 MOL      0.279684
     41 N4          6.2270   -0.3780    0.5600 n         1 MOL     -0.534752
     42 C13         5.2640   -0.5200    1.5860 c3        1 MOL      0.223201
     43 C14         3.9070   -0.7440    0.8810 c         1 MOL      0.295265
     44 O6          3.7020   -0.3810   -0.2800 o         1 MOL     -0.562108
     45 C15         5.1400    0.6510    2.5410 c3        1 MOL     -0.122208
     46 C16         5.3890    2.0180    1.9610 c         1 MOL      0.658288
     47 O7          4.6610    2.3570    1.0120 o         1 MOL     -0.693720
     48 O8          6.3750    2.7090    2.3230 o         1 MOL     -0.693720
     49 H21         5.9350   -0.0230   -0.3370 hn        1 MOL      0.220684
     50 H22         5.4970   -1.3770    2.2110 h1        1 MOL      0.055418
     51 H23         5.8930    0.4060    3.2920 hc        1 MOL      0.053393
     52 H24         4.2080    0.6300    3.1140 hc        1 MOL      0.053393
     53 N5          2.9600   -1.4460    1.5000 n         1 MOL     -0.295049
     54 C17         3.0290   -2.3450    2.6570 c3        1 MOL     -0.045826
     55 C18         3.0110   -3.7850    2.2640 c         1 MOL      0.511151
     56 O9          3.2860   -4.1040    1.1390 o         1 MOL     -0.550301
     57 H25         2.1130   -1.5310    0.9570 hn        1 MOL      0.306725
     58 H26         2.1920   -2.0860    3.3040 h1        1 MOL      0.062396
     59 H27         3.9310   -2.1080    3.2090 h1        1 MOL      0.062396
     60 N6          2.5860   -4.5830    3.2000 n         1 MOL     -0.412031
     61 C19         2.2470   -6.0110    2.8730 c3        1 MOL      0.112360
     62 C20         1.1610   -6.2700    1.8110 c         1 MOL      0.585475
     63 O10         1.3990   -7.0900    0.9240 o         1 MOL     -0.579520
     64 C21         1.9850   -6.8110    4.1480 c3        1 MOL     -0.393573
     65 C22         0.9610   -6.1660    5.0610 c         1 MOL      0.732826
     66 O11         0.3190   -5.1110    4.7580 o         1 MOL     -0.692420
     67 O12         0.8580   -6.6450    6.2080 o         1 MOL     -0.692420
     68 H28         2.3530   -4.2210    4.1200 hn        1 MOL      0.285807
     69 H29         3.0830   -6.5300    2.3860 h1        1 MOL      0.023542
     70 H30         2.9240   -6.8760    4.7070 hc        1 MOL      0.109788
     71 H31         1.5380   -7.7240    3.7630 hc        1 MOL      0.109788
     72 N7          0.1760   -5.4420    1.9450 n         1 MOL     -0.297532
     73 C23        -0.9470   -5.3120    0.9880 c3        1 MOL     -0.097158
     74 C24        -0.6210   -4.4810   -0.3290 c         1 MOL      0.668575
     75 O13        -1.4340   -4.0600   -1.0480 o         1 MOL     -0.563259
     76 H32         0.1470   -4.7670    2.6940 hn        1 MOL      0.226711
     77 H33        -1.8330   -4.8960    1.4760 h1        1 MOL      0.080943
     78 H34        -1.1930   -6.2910    0.5990 h1        1 MOL      0.080943
     79 N8          0.6410   -4.1750   -0.5570 n         1 MOL     -0.451552
     80 C25         1.0830   -3.2300   -1.6110 c3        1 MOL      0.035034
     81 C26         0.6860   -1.8010   -1.4230 c         1 MOL      0.546103
     82 O14         0.7270   -1.3570   -0.2670 o         1 MOL     -0.529282
     83 C27         2.5210   -3.3760   -2.0580 c3        1 MOL      0.216466
     84 C28         2.7410   -4.8020   -2.4100 c3        1 MOL     -0.427463
     85 O15         2.7080   -2.7290   -3.3230 oh        1 MOL     -0.566031
     86 H35         1.3790   -4.4610    0.0690 hn        1 MOL      0.212737
     87 H36         0.5780   -3.4990   -2.5380 h1        1 MOL      0.096132
     88 H37         3.2220   -3.0530   -1.2800 h1        1 MOL      0.074774
     89 H38         3.5360   -2.2450   -3.2350 ho        1 MOL      0.354856
     90 H39         2.9400   -5.3540   -1.4830 hc        1 MOL      0.110344
     91 H40         1.9120   -5.0930   -3.0440 hc        1 MOL      0.110344
     92 H41         3.6960   -4.7910   -2.9370 hc        1 MOL      0.110344
     93 N9          0.1510   -1.2140   -2.5290 n         1 MOL     -0.473031
     94 C29        -0.4980    0.1220   -2.4160 c3        1 MOL     -0.026710
     95 C30        -1.8360   -0.0540   -1.6070 c         1 MOL      0.544067
     96 O16        -2.2690    0.9950   -1.1090 o         1 MOL     -0.543793
     97 C31        -0.5940    0.7400   -3.8370 c3        1 MOL      0.273610
     98 C32         0.7380    0.8060   -4.6390 c3        1 MOL     -0.164686
     99 C33        -1.4150    2.0320   -3.9070 c3        1 MOL     -0.228726
    100 C34         1.9220    1.4510   -3.9030 c3        1 MOL     -0.070114
    101 H42         0.1800   -1.7560   -3.3840 hn        1 MOL      0.299404
    102 H43         0.0610    0.8140   -1.7870 h1        1 MOL      0.081682
    103 H44        -1.2600    0.0810   -4.3810 hc        1 MOL     -0.030764
    104 H45         0.6350    1.2920   -5.6020 hc        1 MOL      0.043289
    105 H46         1.0060   -0.2390   -4.8240 hc        1 MOL      0.043289
    106 H47        -0.8910    2.7640   -3.2920 hc        1 MOL      0.053601
    107 H48        -1.3690    2.3000   -4.9650 hc        1 MOL      0.053601
    108 H49        -2.4610    1.9560   -3.5810 hc        1 MOL      0.053601
    109 H50         2.7470    1.5760   -4.6060 hc        1 MOL      0.023840
    110 H51         1.6940    2.4260   -3.4790 hc        1 MOL      0.023840
    111 H52         2.3840    0.7860   -3.1790 hc        1 MOL      0.023840
    112 N10        -2.4390   -1.2540   -1.4480 n         1 MOL     -0.391688
    113 C35        -3.6630   -1.5460   -0.6820 c3        1 MOL     -0.084136
    114 C36        -4.8570   -2.0950   -1.4540 c         1 MOL      0.658430
    115 O17        -4.6510   -2.7850   -2.4190 o         1 MOL     -0.565579
    116 C37        -3.3760   -2.2870    0.6240 c3        1 MOL      0.516449
    117 C38        -2.2680   -1.6380    1.4240 c3        1 MOL     -0.368586
    118 O18        -4.5150   -2.0470    1.4000 oh        1 MOL     -0.626648
    119 H53        -2.0590   -2.0470   -1.9450 hn        1 MOL      0.217415
    120 H54        -3.9770   -0.5620   -0.3520 h1        1 MOL      0.106955
    121 H55        -3.1550   -3.3560    0.5650 h1        1 MOL     -0.082252
    122 H56        -4.9730   -2.8630    1.5900 ho        1 MOL      0.365731
    123 H57        -1.3690   -1.7380    0.8060 hc        1 MOL      0.105620
    124 H58        -2.4790   -0.5730    1.5370 hc        1 MOL      0.105620
    125 H59        -2.1000   -2.1620    2.3730 hc        1 MOL      0.105620
    126 N11        -6.0550   -1.8780   -1.0720 n         1 MOL     -0.604753
    127 C39        -7.3250   -2.2980   -1.8020 c3        1 MOL      0.003268
    128 C40        -8.3730   -1.2130   -1.8010 c         1 MOL      0.773706
    129 O19        -8.9610   -1.0990   -2.8550 o         1 MOL     -0.581773
    130 C41        -7.8740   -3.5380   -1.0050 c3        1 MOL      0.328958
    131 C42        -8.9450   -4.3280   -1.8070 c3        1 MOL     -0.412292
    132 O20        -8.4010   -3.1020    0.2400 oh        1 MOL     -0.646004
    133 H60        -6.0780   -1.2540   -0.2790 hn        1 MOL      0.269332
    134 H61        -7.1230   -2.5610   -2.8340 h1        1 MOL      0.109788
    135 H62        -7.0570   -4.2250   -0.7990 h1        1 MOL      0.034811
    136 H63        -8.2070   -3.7800    0.8880 ho        1 MOL      0.422099
    137 H64        -9.1080   -5.1100   -1.0760 hc        1 MOL      0.108645
    138 H65        -9.8310   -3.6980   -1.7880 hc        1 MOL      0.108645
    139 H66        -8.6440   -4.6360   -2.8070 hc        1 MOL      0.108645
    140 N12        -8.5820   -0.4290   -0.6940 n         1 MOL     -0.655321
    141 C43        -9.6790    0.5750   -0.5740 c3        1 MOL      0.051953
    142 C44        -9.4130    1.5520    0.4700 c         1 MOL      0.683795
    143 O21        -9.0390    1.1930    1.5640 o         1 MOL     -0.529249
    144 C45       -11.0690   -0.1390   -0.3290 c3        1 MOL     -0.293784
    145 C46       -12.2260    0.7900   -0.7460 c3        1 MOL      0.130626
    146 C47       -13.5190    0.2130   -0.2460 c3        1 MOL     -0.214838
    147 C48       -14.6970    1.1310   -0.4860 c3        1 MOL      0.270070
    148 N13       -16.0090    0.4940   -0.1390 n4        1 MOL     -0.419484
    149 H67        -8.1680   -0.7680    0.1600 hn        1 MOL      0.359295
    150 H68        -9.8480    1.1010   -1.5130 h1        1 MOL      0.057204
    151 H69       -11.1120   -0.3830    0.7330 hc        1 MOL      0.115641
    152 H70       -11.2840   -0.9710   -1.0010 hc        1 MOL      0.115641
    153 H71       -12.3530    0.8510   -1.8320 hc        1 MOL      0.013871
    154 H72       -12.0280    1.7470   -0.2630 hc        1 MOL      0.013871
    155 H73       -13.4970    0.0270    0.8290 hc        1 MOL      0.061158
    156 H74       -13.6160   -0.7270   -0.7850 hc        1 MOL      0.061158
    157 H75       -14.6960    1.5020   -1.5130 hx        1 MOL      0.026565
    158 H76       -14.6090    2.0010    0.1630 hx        1 MOL      0.026565
    159 H77       -15.9970    0.4050    0.8700 hn        1 MOL      0.330539
    160 H78       -16.8530    1.0110   -0.3360 hn        1 MOL      0.330539
    161 H79       -16.1220   -0.4030   -0.5870 hn        1 MOL      0.330539
    162 N14        -9.5000    2.8380    0.1460 n         1 MOL     -0.416692
    163 C49        -9.2150    3.8520    1.1830 c3        1 MOL      0.226864
    164 C50        -7.6810    3.9790    1.4650 c         1 MOL      0.294712
    165 O22        -7.2040    3.6310    2.5140 o         1 MOL     -0.495199
    166 C51        -9.8860    5.1540    0.8250 c3        1 MOL     -0.095894
    167 C52        -9.9140    6.0540    2.0150 c3        1 MOL     -0.130253
    168 C53       -10.4470    7.4700    1.8190 c         1 MOL      0.766984
    169 O23       -10.9890    7.6980    0.7620 o         1 MOL     -0.701753
    170 O24       -10.2870    8.2660    2.7330 o         1 MOL     -0.701753
    171 H80        -9.7830    3.1960   -0.7520 hn        1 MOL      0.207021
    172 H81        -9.6990    3.4830    2.0870 h1        1 MOL      0.009752
    173 H82       -10.9020    4.9630    0.4890 hc        1 MOL      0.012949
    174 H83        -9.3420    5.6220    0.0060 hc        1 MOL      0.012949
    175 H84        -8.9110    6.1860    2.4270 hc        1 MOL      0.026778
    176 H85       -10.5070    5.5790    2.7890 hc        1 MOL      0.026778
    177 N15        -6.7860    4.2880    0.5250 n         1 MOL     -0.269468
    178 C54        -6.9990    4.5670   -0.9570 c3        1 MOL     -0.103668
    179 H86        -7.9700    5.0400   -1.1010 h1        1 MOL      0.071663
    180 H87        -6.2150    5.2300   -1.3190 h1        1 MOL      0.071663
    181 H88        -6.9680    3.6280   -1.5120 h1        1 MOL      0.071663
    182 H89        -5.8360    4.3930    0.8660 hn        1 MOL      0.280013
    183 Ca1         6.1210    4.3210    0.0220 Ca        1 MOL      1.806727
    184 O25         3.4270    5.0520    0.1820 oh        1 MOL     -0.969744
    185 H90         2.9330    5.8190    0.4550 ho        1 MOL      0.467422
    186 H91         2.7540    4.3930   -0.0110 ho        1 MOL      0.467422
    187 O26         4.5860    2.1230   -1.5800 oh        1 MOL     -0.969744
    188 H92         4.5700    1.8080   -0.6830 ho        1 MOL      0.467422
    189 H93         3.7420    1.8610   -1.9430 ho        1 MOL      0.467422
    190 O27         5.8220    6.2430    1.9620 oh        1 MOL     -0.969744
    191 H94         6.5550    6.5130    2.5180 ho        1 MOL      0.467422
    192 H95         5.1140    6.8330    2.2060 ho        1 MOL      0.467422
@<TRIPOS>BOND
     1    1    2 1   
     2    1    4 1   
     3    1    5 1   
     4    1    6 1   
     5    2    3 2   
     6    2    7 1   
     7    7    8 1   
     8    7   15 1   
     9    8    9 1   
    10    8   11 1   
    11    8   16 1   
    12    9   10 2   
    13    9   19 1   
    14   11   12 1   
    15   11   17 1   
    16   11   18 1   
    17   12   13 1   
    18   12   14 1   
    19   19   20 1   
    20   19   28 1   
    21   20   21 1   
    22   20   23 1   
    23   20   29 1   
    24   21   22 2   
    25   21   41 1   
    26   23   24 1   
    27   23   30 1   
    28   23   31 1   
    29   24   25 1   
    30   24   32 1   
    31   24   33 1   
    32   25   26 1   
    33   25   34 1   
    34   25   35 1   
    35   26   27 1   
    36   26   36 1   
    37   26   37 1   
    38   27   38 1   
    39   27   39 1   
    40   27   40 1   
    41   41   42 1   
    42   41   49 1   
    43   42   43 1   
    44   42   45 1   
    45   42   50 1   
    46   43   44 2   
    47   43   53 1   
    48   45   46 1   
    49   45   51 1   
    50   45   52 1   
    51   46   47 1   
    52   46   48 1   
    53   53   54 1   
    54   53   57 1   
    55   54   55 1   
    56   54   58 1   
    57   54   59 1   
    58   55   56 2   
    59   55   60 1   
    60   60   61 1   
    61   60   68 1   
    62   61   62 1   
    63   61   64 1   
    64   61   69 1   
    65   62   63 2   
    66   62   72 1   
    67   64   65 1   
    68   64   70 1   
    69   64   71 1   
    70   65   66 1   
    71   65   67 1   
    72   72   73 1   
    73   72   76 1   
    74   73   74 1   
    75   73   77 1   
    76   73   78 1   
    77   74   75 2   
    78   74   79 1   
    79   79   80 1   
    80   79   86 1   
    81   80   81 1   
    82   80   83 1   
    83   80   87 1   
    84   81   82 2   
    85   81   93 1   
    86   83   84 1   
    87   83   85 1   
    88   83   88 1   
    89   84   90 1   
    90   84   91 1   
    91   84   92 1   
    92   85   89 1   
    93   93   94 1   
    94   93  101 1   
    95   94   95 1   
    96   94   97 1   
    97   94  102 1   
    98   95   96 2   
    99   95  112 1   
   100   97   98 1   
   101   97   99 1   
   102   97  103 1   
   103   98  100 1   
   104   98  104 1   
   105   98  105 1   
   106   99  106 1   
   107   99  107 1   
   108   99  108 1   
   109  100  109 1   
   110  100  110 1   
   111  100  111 1   
   112  112  113 1   
   113  112  119 1   
   114  113  114 1   
   115  113  116 1   
   116  113  120 1   
   117  114  115 2   
   118  114  126 1   
   119  116  117 1   
   120  116  118 1   
   121  116  121 1   
   122  117  123 1   
   123  117  124 1   
   124  117  125 1   
   125  118  122 1   
   126  126  127 1   
   127  126  133 1   
   128  127  128 1   
   129  127  130 1   
   130  127  134 1   
   131  128  129 2   
   132  128  140 1   
   133  130  131 1   
   134  130  132 1   
   135  130  135 1   
   136  131  137 1   
   137  131  138 1   
   138  131  139 1   
   139  132  136 1   
   140  140  141 1   
   141  140  149 1   
   142  141  142 1   
   143  141  144 1   
   144  141  150 1   
   145  142  143 2   
   146  142  162 1   
   147  144  145 1   
   148  144  151 1   
   149  144  152 1   
   150  145  146 1   
   151  145  153 1   
   152  145  154 1   
   153  146  147 1   
   154  146  155 1   
   155  146  156 1   
   156  147  148 1   
   157  147  157 1   
   158  147  158 1   
   159  148  159 1   
   160  148  160 1   
   161  148  161 1   
   162  162  163 1   
   163  162  171 1   
   164  163  164 1   
   165  163  166 1   
   166  163  172 1   
   167  164  165 2   
   168  164  177 1   
   169  166  167 1   
   170  166  173 1   
   171  166  174 1   
   172  167  168 1   
   173  167  175 1   
   174  167  176 1   
   175  168  169 1   
   176  168  170 1   
   177  177  178 1   
   178  177  182 1   
   179  178  179 1   
   180  178  180 1   
   181  178  181 1   
   182  184  185 1   
   183  184  186 1   
   184  187  188 1   
   185  187  189 1   
   186  190  191 1   
   187  190  192 1   
@<TRIPOS>SUBSTRUCTURE
     1 MOL         1 TEMP              0 ****  ****    0 ROOT
