@<TRIPOS>MOLECULE
MOL
  198   191     1     0     0
SMALL
resp


@<TRIPOS>ATOM
      1 C1          2.4900   -6.0070   -1.1110 c3        1 MOL     -0.207815
      2 C2          1.8150   -4.6460   -0.5920 c         1 MOL      0.777690
      3 O1          2.4930   -3.6170   -0.7770 o         1 MOL     -0.723409
      4 H1          2.0690   -6.2740   -2.0800 hc        1 MOL      0.047067
      5 H2          3.5660   -5.8650   -1.2090 hc        1 MOL      0.047067
      6 H3          2.2930   -6.8070   -0.3970 hc        1 MOL      0.047067
      7 N1          0.6390   -4.4490   -0.0700 n         1 MOL     -0.238042
      8 C3         -0.2390   -5.3170    0.5790 c3        1 MOL     -0.147117
      9 C4         -1.3210   -5.8880   -0.3370 c         1 MOL      0.451950
     10 O2         -2.2090   -6.6010    0.0740 o         1 MOL     -0.498779
     11 C5         -0.8720   -4.6610    1.8240 c3        1 MOL     -0.404748
     12 C6          0.0850   -3.9050    2.7010 c         1 MOL      0.759387
     13 O3          0.5470   -4.6100    3.6880 o         1 MOL     -0.695261
     14 O4          0.3000   -2.6840    2.6720 o         1 MOL     -0.695261
     15 H4          0.4850   -3.4590    0.0650 hn        1 MOL      0.217510
     16 H5          0.3460   -6.1650    0.9340 h1        1 MOL      0.111594
     17 H6         -1.4540   -5.4140    2.3460 hc        1 MOL      0.145852
     18 H7         -1.5990   -3.9110    1.4930 hc        1 MOL      0.145852
     19 N2         -1.3710   -5.4530   -1.6050 n         1 MOL     -0.160364
     20 C7         -2.3400   -5.9040   -2.6200 c3        1 MOL     -0.356212
     21 C8         -3.7810   -5.5980   -2.2650 c         1 MOL      0.578968
     22 O5         -4.6640   -6.3900   -2.4790 o         1 MOL     -0.558609
     23 C9         -2.1070   -5.3570   -4.0680 c3        1 MOL      0.291014
     24 C10        -1.8750   -3.8240   -4.0710 c3        1 MOL     -0.214925
     25 C11        -0.9230   -6.1810   -4.5770 c3        1 MOL     -0.249184
     26 C12        -1.3950   -3.4040   -5.4590 c3        1 MOL     -0.180887
     27 H8         -0.7380   -4.7250   -1.9090 hn        1 MOL      0.040513
     28 H9         -2.2480   -6.9910   -2.6340 h1        1 MOL      0.135119
     29 H10        -2.9650   -5.6280   -4.6830 hc        1 MOL      0.015824
     30 H11        -1.0290   -3.5630   -3.4400 hc        1 MOL      0.126178
     31 H12        -2.8030   -3.3900   -3.7060 hc        1 MOL      0.126178
     32 H13        -1.1640   -7.2410   -4.5840 hc        1 MOL      0.053398
     33 H14        -0.7910   -5.9310   -5.6310 hc        1 MOL      0.053398
     34 H15         0.0290   -5.9590   -4.0930 hc        1 MOL      0.053398
     35 H16        -2.0610   -3.7370   -6.2570 hc        1 MOL      0.039117
     36 H17        -1.3410   -2.3170   -5.4790 hc        1 MOL      0.039117
     37 H18        -0.4150   -3.7990   -5.7330 hc        1 MOL      0.039117
     38 N3         -3.9420   -4.4180   -1.5920 n         1 MOL     -0.281104
     39 C13        -5.2870   -3.7490   -1.3920 c3        1 MOL      0.019973
     40 C14        -5.1680   -2.9360   -0.1020 c         1 MOL      0.233649
     41 O6         -4.1840   -2.2160    0.1560 o         1 MOL     -0.448823
     42 C15        -5.7570   -2.8620   -2.6240 c3        1 MOL     -0.093569
     43 C16        -7.2250   -2.5280   -2.5870 c         1 MOL      0.690280
     44 O7         -7.7350   -2.1570   -1.5060 o         1 MOL     -0.711166
     45 O8         -7.8600   -2.4890   -3.6740 o         1 MOL     -0.711166
     46 H19        -3.1610   -3.7940   -1.4490 hn        1 MOL      0.236904
     47 H20        -6.0680   -4.4900   -1.2040 h1        1 MOL      0.067337
     48 H21        -5.5290   -3.4440   -3.5140 hc        1 MOL     -0.001572
     49 H22        -5.2470   -1.9020   -2.5600 hc        1 MOL     -0.001572
     50 N4         -6.2620   -2.9020    0.7130 n         1 MOL     -0.147268
     51 C17        -6.4500   -2.0100    1.8450 c3        1 MOL     -0.253242
     52 C18        -6.4540   -0.5110    1.5450 c         1 MOL      0.569070
     53 O9         -5.9260    0.2180    2.4400 o         1 MOL     -0.613842
     54 H23        -6.8980   -3.6780    0.6330 hn        1 MOL      0.235431
     55 H24        -5.6180   -2.1350    2.5350 h1        1 MOL      0.101965
     56 H25        -7.3560   -2.2220    2.4130 h1        1 MOL      0.101965
     57 N5         -6.8800   -0.0240    0.3980 n         1 MOL     -0.238738
     58 C19        -6.7520    1.3370   -0.0580 c3        1 MOL      0.454861
     59 C20        -5.7480    1.5680   -1.1410 c         1 MOL      0.229837
     60 O10        -5.6750    0.6780   -2.0080 o         1 MOL     -0.457916
     61 C21        -8.0710    1.8980   -0.5910 c3        1 MOL     -0.388753
     62 C22        -9.0360    1.8770    0.5310 c         1 MOL      0.634892
     63 O11        -9.8460    0.8800    0.7370 o         1 MOL     -0.668334
     64 O12        -8.9530    2.7510    1.4270 o         1 MOL     -0.668334
     65 H26        -7.2530   -0.6820   -0.2630 hn        1 MOL      0.246509
     66 H27        -6.5140    1.9920    0.7790 h1        1 MOL     -0.061234
     67 H28        -8.3220    1.2250   -1.4170 hc        1 MOL      0.094743
     68 H29        -7.9230    2.9350   -0.8960 hc        1 MOL      0.094743
     69 N6         -5.0220    2.6910   -1.3440 n         1 MOL     -0.376846
     70 C23        -4.8870    3.7940   -0.4200 c3        1 MOL      0.070537
     71 C24        -3.9950    4.9410   -1.0290 c         1 MOL      0.500630
     72 O13        -3.7200    4.9730   -2.2020 o         1 MOL     -0.513919
     73 H30        -4.5170    2.8110   -2.2130 hn        1 MOL      0.272874
     74 H31        -4.3910    3.3150    0.4250 h1        1 MOL      0.066775
     75 H32        -5.8760    4.2090   -0.2180 h1        1 MOL      0.066775
     76 N7         -3.5310    5.9130   -0.2110 n         1 MOL     -0.499978
     77 C25        -3.3420    5.9260    1.3040 c3        1 MOL      0.045530
     78 C26        -2.5100    4.5940    1.6920 c         1 MOL      0.352228
     79 O14        -2.8740    3.9520    2.6940 o         1 MOL     -0.441826
     80 C27        -4.6010    6.3120    2.0920 c3        1 MOL     -0.152210
     81 C28        -5.1080    7.7250    1.8090 c3        1 MOL      0.007203
     82 C29        -4.1440    8.8480    2.2710 c         1 MOL      0.567842
     83 N8         -4.4010   10.1290    1.9390 n         1 MOL     -0.794391
     84 O15        -3.1710    8.6030    3.0660 o         1 MOL     -0.529272
     85 H33        -2.9710    6.6080   -0.6760 hn        1 MOL      0.279789
     86 H34        -2.6070    6.7020    1.4840 h1        1 MOL      0.085750
     87 H35        -4.3910    6.3750    3.1560 hc        1 MOL      0.077887
     88 H36        -5.3660    5.5550    1.9190 hc        1 MOL      0.077887
     89 H37        -6.1200    7.9230    2.1580 hc        1 MOL      0.022943
     90 H38        -5.2790    7.7650    0.7300 hc        1 MOL      0.022943
     91 H39        -5.2980   10.4700    1.6270 hn        1 MOL      0.357228
     92 H40        -3.7700   10.8220    2.3330 hn        1 MOL      0.357228
     93 N9         -1.5280    4.3250    0.7620 n         1 MOL     -0.400827
     94 C30        -0.7870    3.0670    0.6360 c3        1 MOL      0.156058
     95 C31        -0.6000    2.5880   -0.8130 c         1 MOL      0.490977
     96 O16        -1.1060    3.2990   -1.6970 o         1 MOL     -0.500898
     97 C32         0.6310    3.0980    1.3310 c3        1 MOL      0.154011
     98 C33         0.5170    3.4200    2.8510 c3        1 MOL     -0.174648
     99 C34         1.6720    3.9420    0.5880 c3        1 MOL     -0.174648
    100 H41        -1.3370    4.9100   -0.0320 hn        1 MOL      0.266793
    101 H42        -1.3650    2.2910    1.1210 h1        1 MOL      0.081782
    102 H43         0.9640    2.0700    1.2040 hc        1 MOL      0.009084
    103 H44         0.0860    4.4140    3.0130 hc        1 MOL      0.033922
    104 H45        -0.0850    2.6940    3.3860 hc        1 MOL      0.033922
    105 H46         1.4950    3.4290    3.3400 hc        1 MOL      0.033922
    106 H47         2.1220    3.4210   -0.2640 hc        1 MOL      0.033922
    107 H48         1.2000    4.8260    0.1570 hc        1 MOL      0.033922
    108 H49         2.4300    4.1810    1.3320 hc        1 MOL      0.033922
    109 N10        -0.0100    1.4200   -1.0520 n         1 MOL     -0.599955
    110 C35         0.1210    0.8520   -2.4350 c3        1 MOL      0.106875
    111 C36         1.4520    1.2230   -3.0840 c         1 MOL      0.579893
    112 O17         1.5940    1.0610   -4.2670 o         1 MOL     -0.543525
    113 C37         0.0250   -0.6890   -2.3190 c3        1 MOL     -0.125087
    114 C38        -1.2720   -1.2710   -1.8030 c         1 MOL      0.597595
    115 N11        -2.3900   -0.8090   -2.3030 n         1 MOL     -0.604346
    116 O18        -1.2440   -2.1230   -0.9680 o         1 MOL     -0.541644
    117 H50         0.4590    0.9070   -0.3270 hn        1 MOL      0.361233
    118 H51        -0.5300    1.2790   -3.1960 h1        1 MOL      0.094840
    119 H52         0.8830   -1.1790   -1.8560 hc        1 MOL      0.054681
    120 H53         0.0620   -1.0650   -3.3420 hc        1 MOL      0.054681
    121 H54        -2.4170   -0.2150   -3.1170 hn        1 MOL      0.308096
    122 H55        -3.2330   -1.2030   -1.9160 hn        1 MOL      0.308096
    123 N12         2.4330    1.7150   -2.2910 n         1 MOL     -0.372648
    124 C39         3.8560    1.6870   -2.6810 c3        1 MOL     -0.043890
    125 C40         4.8130    1.7270   -1.4680 c         1 MOL      0.696674
    126 O19         4.4680    2.2350   -0.4180 o         1 MOL     -0.554396
    127 C41         4.1880    2.7880   -3.6720 c3        1 MOL      0.189639
    128 C42         4.1320    4.1920   -2.9990 ca        1 MOL     -0.013543
    129 C43         5.2970    4.9540   -2.5550 ca        1 MOL     -0.162524
    130 C44         2.8250    4.8020   -2.8170 ca        1 MOL     -0.162524
    131 C45         5.1270    6.2810   -2.1260 ca        1 MOL     -0.166958
    132 C46         2.6960    6.0040   -2.2190 ca        1 MOL     -0.166958
    133 C47         3.8550    6.7900   -1.9510 ca        1 MOL      0.216492
    134 O20         3.7470    8.0270   -1.5060 oh        1 MOL     -0.459415
    135 H56         2.2730    1.9500   -1.3260 hn        1 MOL      0.112755
    136 H57         4.1200    0.7820   -3.2290 h1        1 MOL      0.059595
    137 H58         3.4800    2.8460   -4.5000 hc        1 MOL     -0.046001
    138 H59         5.1600    2.5730   -4.1100 hc        1 MOL     -0.046001
    139 H60         6.2630    4.4650   -2.6160 ha        1 MOL      0.127073
    140 H61         1.9270    4.2250   -2.9620 ha        1 MOL      0.127073
    141 H62         5.9860    6.9330   -2.1070 ha        1 MOL      0.132498
    142 H63         1.6950    6.3590   -2.0330 ha        1 MOL      0.132498
    143 H64         2.8470    8.3730   -1.5550 ho        1 MOL      0.348597
    144 N13         6.0540    1.2680   -1.6890 n         1 MOL     -0.428294
    145 C48         7.1840    1.2060   -0.7690 c3        1 MOL      0.130655
    146 C49         7.5890   -0.2560   -0.5800 c         1 MOL      0.429601
    147 O21         8.6640   -0.7140   -0.9220 o         1 MOL     -0.464575
    148 C50         8.3810    2.2160   -1.0660 c3        1 MOL     -0.128358
    149 C51         9.4250    2.2690    0.1090 c3        1 MOL      0.022485
    150 C52        10.3750    3.4610    0.1630 c         1 MOL      0.691245
    151 O22        11.5460    3.2880    0.5510 o         1 MOL     -0.742361
    152 O23         9.8900    4.5600   -0.1410 o         1 MOL     -0.742361
    153 H65         6.1900    0.8040   -2.5840 hn        1 MOL      0.231825
    154 H66         6.7950    1.5820    0.1710 h1        1 MOL      0.049412
    155 H67         7.9210    3.1970   -1.1540 hc        1 MOL      0.026927
    156 H68         8.9210    2.0290   -1.9850 hc        1 MOL      0.026927
    157 H69        10.0480    1.3770    0.1490 hc        1 MOL     -0.043219
    158 H70         8.8390    2.2340    1.0280 hc        1 MOL     -0.043219
    159 N14         6.6020   -1.0420   -0.1460 n         1 MOL     -0.318522
    160 C53         6.7630   -2.5110   -0.2620 c3        1 MOL     -0.123732
    161 C54         6.4040   -3.0300   -1.7340 c         1 MOL      0.347156
    162 O24         7.0700   -3.8560   -2.3080 o         1 MOL     -0.509697
    163 C55         5.7090   -3.1160    0.7050 c3        1 MOL     -0.084777
    164 C56         5.6600   -2.8660    2.2280 c3        1 MOL      0.014027
    165 C57         4.4480   -3.5510    2.8970 c         1 MOL      0.611131
    166 O25         4.6230   -4.8160    3.0830 o         1 MOL     -0.725393
    167 O26         3.4180   -2.8960    3.2240 o         1 MOL     -0.725393
    168 H71         5.7030   -0.7220    0.1780 hn        1 MOL      0.204241
    169 H72         7.7330   -2.7910    0.1460 h1        1 MOL      0.130916
    170 H73         5.6600   -4.2130    0.6840 hc        1 MOL      0.102203
    171 H74         4.7290   -2.8580    0.2940 hc        1 MOL      0.102203
    172 H75         5.5840   -1.8060    2.5010 hc        1 MOL     -0.028096
    173 H76         6.5870   -3.1820    2.7140 hc        1 MOL     -0.028096
    174 N15         5.5130   -2.3350   -2.3850 n         1 MOL     -0.006546
    175 C58         5.0980   -2.4180   -3.8270 c3        1 MOL     -0.326344
    176 H77         4.5910   -3.3660   -4.0040 h1        1 MOL      0.118830
    177 H78         4.4210   -1.5950   -4.0590 h1        1 MOL      0.118830
    178 H79         5.9800   -2.3530   -4.4640 h1        1 MOL      0.118830
    179 H80         4.9990   -1.6290   -1.8800 hn        1 MOL      0.138401
    180 Ca1         1.4790   -2.4060    4.9510 Ca        1 MOL      1.809039
    181 O27         2.8990   -4.8630    5.4550 oh        1 MOL     -0.853647
    182 H81         3.5520   -4.7260    4.7740 ho        1 MOL      0.404533
    183 H82         2.9090   -5.8060    5.6070 ho        1 MOL      0.404533
    184 O28        -1.2110   -2.3760    5.1400 oh        1 MOL     -0.853647
    185 H83        -1.7000   -2.6960    4.3810 ho        1 MOL      0.404533
    186 H84        -1.8650   -2.2210    5.8190 ho        1 MOL      0.404533
    187 O29         1.2440   -0.6720    7.0310 oh        1 MOL     -0.853647
    188 H85         1.1100    0.2520    6.8110 ho        1 MOL      0.404533
    189 H86         1.6260   -0.6580    7.9070 ho        1 MOL      0.404533
    190 O30         0.5420   -4.0840    6.9660 oh        1 MOL     -0.853647
    191 H87         0.2360   -3.8230    7.8270 ho        1 MOL      0.404533
    192 H88         0.5950   -5.0430    7.0100 ho        1 MOL      0.404533
    193 O31         3.8650   -1.3080    5.7330 oh        1 MOL     -0.853647
    194 H89         4.6710   -1.7380    5.4560 ho        1 MOL      0.404533
    195 H90         4.1300   -0.4130    5.9400 ho        1 MOL      0.404533
    196 O32         0.9670   -0.0150    3.8760 oh        1 MOL     -0.853647
    197 H91         1.1750    0.6320    4.5490 ho        1 MOL      0.404533
    198 H92         0.1990    0.3470    3.4330 ho        1 MOL      0.404533
@<TRIPOS>BOND
     1    1    2 1   
     2    1    4 1   
     3    1    5 1   
     4    1    6 1   
     5    2    3 2   
     6    2    7 1   
     7    7    8 1   
     8    7   15 1   
     9    8    9 1   
    10    8   11 1   
    11    8   16 1   
    12    9   10 2   
    13    9   19 1   
    14   11   12 1   
    15   11   17 1   
    16   11   18 1   
    17   12   13 1   
    18   12   14 1   
    19   19   20 1   
    20   19   27 1   
    21   20   21 1   
    22   20   23 1   
    23   20   28 1   
    24   21   22 2   
    25   21   38 1   
    26   23   24 1   
    27   23   25 1   
    28   23   29 1   
    29   24   26 1   
    30   24   30 1   
    31   24   31 1   
    32   25   32 1   
    33   25   33 1   
    34   25   34 1   
    35   26   35 1   
    36   26   36 1   
    37   26   37 1   
    38   38   39 1   
    39   38   46 1   
    40   39   40 1   
    41   39   42 1   
    42   39   47 1   
    43   40   41 2   
    44   40   50 1   
    45   42   43 1   
    46   42   48 1   
    47   42   49 1   
    48   43   44 1   
    49   43   45 1   
    50   50   51 1   
    51   50   54 1   
    52   51   52 1   
    53   51   55 1   
    54   51   56 1   
    55   52   53 2   
    56   52   57 1   
    57   57   58 1   
    58   57   65 1   
    59   58   59 1   
    60   58   61 1   
    61   58   66 1   
    62   59   60 2   
    63   59   69 1   
    64   61   62 1   
    65   61   67 1   
    66   61   68 1   
    67   62   63 1   
    68   62   64 1   
    69   69   70 1   
    70   69   73 1   
    71   70   71 1   
    72   70   74 1   
    73   70   75 1   
    74   71   72 2   
    75   71   76 1   
    76   76   77 1   
    77   76   85 1   
    78   77   78 1   
    79   77   80 1   
    80   77   86 1   
    81   78   79 2   
    82   78   93 1   
    83   80   81 1   
    84   80   87 1   
    85   80   88 1   
    86   81   82 1   
    87   81   89 1   
    88   81   90 1   
    89   82   83 1   
    90   82   84 2   
    91   83   91 1   
    92   83   92 1   
    93   93   94 1   
    94   93  100 1   
    95   94   95 1   
    96   94   97 1   
    97   94  101 1   
    98   95   96 2   
    99   95  109 1   
   100   97   98 1   
   101   97   99 1   
   102   97  102 1   
   103   98  103 1   
   104   98  104 1   
   105   98  105 1   
   106   99  106 1   
   107   99  107 1   
   108   99  108 1   
   109  109  110 1   
   110  109  117 1   
   111  110  111 1   
   112  110  113 1   
   113  110  118 1   
   114  111  112 2   
   115  111  123 1   
   116  113  114 1   
   117  113  119 1   
   118  113  120 1   
   119  114  115 1   
   120  114  116 2   
   121  115  121 1   
   122  115  122 1   
   123  123  124 1   
   124  123  135 1   
   125  124  125 1   
   126  124  127 1   
   127  124  136 1   
   128  125  126 2   
   129  125  144 1   
   130  127  128 1   
   131  127  137 1   
   132  127  138 1   
   133  128  129 ar  
   134  128  130 ar  
   135  129  131 ar  
   136  129  139 1   
   137  130  132 ar  
   138  130  140 1   
   139  131  133 ar  
   140  131  141 1   
   141  132  133 ar  
   142  132  142 1   
   143  133  134 1   
   144  134  143 1   
   145  144  145 1   
   146  144  153 1   
   147  145  146 1   
   148  145  148 1   
   149  145  154 1   
   150  146  147 2   
   151  146  159 1   
   152  148  149 1   
   153  148  155 1   
   154  148  156 1   
   155  149  150 1   
   156  149  157 1   
   157  149  158 1   
   158  150  151 1   
   159  150  152 1   
   160  159  160 1   
   161  159  168 1   
   162  160  161 1   
   163  160  163 1   
   164  160  169 1   
   165  161  162 2   
   166  161  174 1   
   167  163  164 1   
   168  163  170 1   
   169  163  171 1   
   170  164  165 1   
   171  164  172 1   
   172  164  173 1   
   173  165  166 1   
   174  165  167 1   
   175  174  175 1   
   176  174  179 1   
   177  175  176 1   
   178  175  177 1   
   179  175  178 1   
   180  181  182 1   
   181  181  183 1   
   182  184  185 1   
   183  184  186 1   
   184  187  188 1   
   185  187  189 1   
   186  190  191 1   
   187  190  192 1   
   188  193  194 1   
   189  193  195 1   
   190  196  197 1   
   191  196  198 1   
@<TRIPOS>SUBSTRUCTURE
     1 MOL         1 TEMP              0 ****  ****    0 ROOT
