@<TRIPOS>MOLECULE
MOL
  189   185     1     0     0
SMALL
resp


@<TRIPOS>ATOM
      1 C1        -11.4250    4.8790    3.7060 c3        1 MOL     -0.627212
      2 C2        -11.2490    3.9160    2.4710 c         1 MOL      0.613674
      3 O1        -11.7000    2.7880    2.4490 o         1 MOL     -0.576181
      4 H1        -11.0560    5.8720    3.4480 hc        1 MOL      0.170148
      5 H2        -12.4810    4.9420    3.9710 hc        1 MOL      0.170148
      6 H3        -10.8600    4.4920    4.5530 hc        1 MOL      0.170148
      7 N1        -10.6250    4.3340    1.3850 n         1 MOL      0.062573
      8 C3        -10.3770    3.5830    0.1510 c3        1 MOL     -0.818521
      9 C4         -9.3010    2.5390    0.2530 c         1 MOL      0.571577
     10 O2         -8.2870    2.7800    0.8560 o         1 MOL     -0.580707
     11 C5        -10.1460    4.4190   -1.1510 c3        1 MOL      0.222684
     12 C6         -9.4660    5.7850   -1.0050 c         1 MOL      0.631276
     13 O3         -8.5620    5.8850   -0.1460 o         1 MOL     -0.686207
     14 O4         -9.8890    6.7390   -1.6640 o         1 MOL     -0.686207
     15 H4        -10.1140    5.1920    1.5340 hn        1 MOL      0.072310
     16 H5        -11.3170    3.0690   -0.0310 h1        1 MOL      0.224607
     17 H6        -11.0980    4.6110   -1.6260 hc        1 MOL      0.037098
     18 H7         -9.5890    3.8120   -1.8620 hc        1 MOL      0.037098
     19 N2         -9.5970    1.3470   -0.2680 n         1 MOL     -0.255431
     20 C7         -8.8100    0.0810   -0.1580 c3        1 MOL      0.221255
     21 C8         -7.5550    0.1140   -1.0460 c         1 MOL      0.356962
     22 O5         -7.4960   -0.5540   -2.0810 o         1 MOL     -0.501224
     23 C9         -9.7190   -1.1200   -0.3710 c3        1 MOL     -0.418769
     24 C10        -9.0480   -2.5340   -0.2830 c3        1 MOL      0.374860
     25 C11       -10.1150   -3.6460   -0.3320 c3        1 MOL     -0.060866
     26 C12        -9.6650   -5.0700    0.2360 c3        1 MOL      0.053594
     27 N3         -8.9600   -5.8070   -0.8350 n4        1 MOL     -0.466678
     28 H8        -10.4100    1.3300   -0.8620 hn        1 MOL      0.231157
     29 H9         -8.3400    0.0700    0.8290 h1        1 MOL      0.027898
     30 H10       -10.2140   -0.9130   -1.3220 hc        1 MOL      0.100648
     31 H11       -10.3510   -1.0800    0.5120 hc        1 MOL      0.100648
     32 H12        -8.6430   -2.5890    0.7360 hc        1 MOL     -0.063058
     33 H13        -8.2920   -2.6610   -1.0610 hc        1 MOL     -0.063058
     34 H14       -10.5650   -3.7260   -1.3260 hc        1 MOL      0.027300
     35 H15       -11.0330   -3.3670    0.1850 hc        1 MOL      0.027300
     36 H16       -10.5500   -5.5020    0.7100 hx        1 MOL      0.057752
     37 H17        -8.9680   -4.9700    1.0690 hx        1 MOL      0.057752
     38 H18        -8.0530   -5.3680   -0.9410 hn        1 MOL      0.345111
     39 H19        -8.7600   -6.7690   -0.5970 hn        1 MOL      0.345111
     40 H20        -9.4480   -5.6570   -1.7090 hn        1 MOL      0.345111
     41 N4         -6.6120    0.9500   -0.7170 n         1 MOL     -0.057989
     42 C13        -5.2910    1.1490   -1.3340 c3        1 MOL     -0.292750
     43 C14        -4.3630    1.7670   -0.2870 c         1 MOL      0.461409
     44 O6         -4.7590    2.5800    0.5250 o         1 MOL     -0.652797
     45 C15        -5.2590    2.0700   -2.5770 c3        1 MOL      0.317873
     46 C16        -6.1460    3.3170   -2.5420 c         1 MOL      0.364672
     47 O7         -6.2590    3.9570   -3.6180 o         1 MOL     -0.606578
     48 O8         -6.6570    3.7720   -1.4580 o         1 MOL     -0.606578
     49 H21        -6.7560    1.4680    0.1370 hn        1 MOL      0.189730
     50 H22        -4.9510    0.1720   -1.6740 h1        1 MOL      0.068679
     51 H23        -5.4280    1.4860   -3.4790 hc        1 MOL     -0.012178
     52 H24        -4.2080    2.3060   -2.7650 hc        1 MOL     -0.012178
     53 N5         -3.1250    1.3850   -0.1450 n         1 MOL     -0.291113
     54 C17        -2.4450    0.2180   -0.7690 c3        1 MOL     -0.322017
     55 C18        -3.1300   -1.1230   -0.4300 c         1 MOL      0.703662
     56 O9         -3.6980   -1.1970    0.6330 o         1 MOL     -0.528725
     57 H25        -2.6220    1.7590    0.6460 hn        1 MOL      0.303530
     58 H26        -1.3910    0.1950   -0.5100 h1        1 MOL      0.124433
     59 H27        -2.4620    0.3850   -1.8470 h1        1 MOL      0.124433
     60 N6         -3.1610   -2.0720   -1.3360 n         1 MOL     -0.525032
     61 C19        -3.8510   -3.3740   -1.2400 c3        1 MOL      0.173232
     62 C20        -3.0020   -4.5290   -1.6220 c         1 MOL      0.394587
     63 O10        -2.0610   -4.4690   -2.4020 o         1 MOL     -0.491154
     64 C21        -5.1190   -3.3300   -2.0800 c3        1 MOL     -0.068292
     65 C22        -6.1360   -4.4220   -1.8280 c         1 MOL      0.577957
     66 O11        -6.8880   -4.8030   -2.7270 o         1 MOL     -0.675851
     67 O12        -6.2920   -4.7250   -0.6320 o         1 MOL     -0.675851
     68 H28        -2.6920   -1.9700   -2.2200 hn        1 MOL      0.270725
     69 H29        -4.1960   -3.4400   -0.2130 h1        1 MOL     -0.002942
     70 H30        -4.8310   -3.2160   -3.1290 hc        1 MOL      0.058333
     71 H31        -5.5380   -2.3810   -1.7430 hc        1 MOL      0.058333
     72 N7         -3.2340   -5.6950   -1.0620 n         1 MOL     -0.153459
     73 C23        -2.3700   -6.8460   -1.3750 c3        1 MOL     -0.153964
     74 C24        -1.0410   -6.7960   -0.7210 c         1 MOL      0.536908
     75 O13        -0.0170   -7.1780   -1.2890 o         1 MOL     -0.530781
     76 H32        -4.1490   -5.9230   -0.6900 hn        1 MOL      0.185123
     77 H33        -2.2040   -6.9530   -2.4430 h1        1 MOL      0.101746
     78 H34        -2.7670   -7.8010   -1.0210 h1        1 MOL      0.101746
     79 N8         -0.9610   -6.1580    0.4780 n         1 MOL     -0.414459
     80 C25         0.3120   -5.6880    1.1020 c3        1 MOL      0.082914
     81 C26         0.4350   -4.1560    1.0030 c         1 MOL      0.712014
     82 O14        -0.5950   -3.5060    0.8040 o         1 MOL     -0.520721
     83 C27         0.3990   -6.1690    2.5580 c3        1 MOL      0.245965
     84 C28        -0.7800   -5.8860    3.5080 c3        1 MOL     -0.152987
     85 O15         0.5900   -7.5870    2.5360 oh        1 MOL     -0.581771
     86 H35        -1.8030   -5.7080    0.8170 hn        1 MOL      0.187567
     87 H36         1.1340   -6.1420    0.5400 h1        1 MOL      0.034373
     88 H37         1.2760   -5.6660    2.9800 h1        1 MOL     -0.031666
     89 H38         1.4000   -7.7070    2.0380 ho        1 MOL      0.376333
     90 H39        -1.6260   -6.4890    3.1560 hc        1 MOL      0.060429
     91 H40        -0.7040   -6.1480    4.5610 hc        1 MOL      0.060429
     92 H41        -1.0080   -4.8250    3.4420 hc        1 MOL      0.060429
     93 N9          1.6530   -3.5570    1.2100 n         1 MOL     -0.702999
     94 C29         1.9150   -2.1450    1.0970 c3        1 MOL      0.054982
     95 C30         3.3070   -1.8880    0.3920 c         1 MOL      0.707414
     96 O16         3.5340   -0.8560   -0.2800 o         1 MOL     -0.549069
     97 C31         1.8020   -1.4410    2.4520 c3        1 MOL      0.113085
     98 C32         1.7070    0.1010    2.3240 c3        1 MOL     -0.139864
     99 C33         2.9350   -1.7250    3.4740 c3        1 MOL     -0.535975
    100 C34         0.4890    0.5940    1.5650 c3        1 MOL     -0.027315
    101 H42         2.4460   -4.1820    1.2880 hn        1 MOL      0.303076
    102 H43         1.2870   -1.6710    0.3520 h1        1 MOL      0.080616
    103 H44         0.8250   -1.7380    2.8410 hc        1 MOL      0.068574
    104 H45         2.5850    0.4250    1.7520 hc        1 MOL      0.046797
    105 H46         1.6610    0.5750    3.3040 hc        1 MOL      0.046797
    106 H47         3.2060   -2.7780    3.5130 hc        1 MOL      0.141070
    107 H48         3.7490   -1.1010    3.1280 hc        1 MOL      0.141070
    108 H49         2.5830   -1.4480    4.4710 hc        1 MOL      0.141070
    109 H50         0.7520    0.4850    0.5120 hc        1 MOL      0.026969
    110 H51        -0.3380   -0.0330    1.9150 hc        1 MOL      0.026969
    111 H52         0.3880    1.6610    1.7460 hc        1 MOL      0.026969
    112 N10         4.2050   -2.8810    0.4070 n         1 MOL     -0.587089
    113 C35         5.6150   -2.8070   -0.1920 c3        1 MOL     -0.196328
    114 C36         6.7620   -2.9980    0.8220 c         1 MOL      0.756274
    115 O17         6.9930   -4.1200    1.2910 o         1 MOL     -0.551975
    116 C37         5.7080   -3.8200   -1.3420 c3        1 MOL      0.507714
    117 C38         7.0170   -3.7090   -2.0830 c3        1 MOL     -0.408128
    118 O18         5.4710   -5.1370   -0.9520 oh        1 MOL     -0.603170
    119 H53         3.9140   -3.7780    0.7540 hn        1 MOL      0.291837
    120 H54         5.7760   -1.8690   -0.7370 h1        1 MOL      0.120880
    121 H55         4.8760   -3.6660   -2.0350 h1        1 MOL      0.044524
    122 H56         5.7460   -5.1650   -0.0300 ho        1 MOL      0.364716
    123 H57         7.1910   -2.6730   -2.4040 hc        1 MOL      0.082548
    124 H58         7.8540   -3.8880   -1.4170 hc        1 MOL      0.082548
    125 H59         7.0360   -4.2300   -3.0380 hc        1 MOL      0.082548
    126 N11         7.6800   -1.9790    1.0010 n         1 MOL     -0.550414
    127 C39         9.0940   -2.1630    1.5600 c3        1 MOL     -0.125235
    128 C40         9.6610   -0.7900    1.8320 c         1 MOL      0.672628
    129 O19        10.1840   -0.6430    2.9350 o         1 MOL     -0.524294
    130 C41         9.9850   -2.9930    0.5510 c3        1 MOL      0.362883
    131 C42        11.4110   -2.9880    0.9820 c3        1 MOL     -0.475772
    132 O20         9.9650   -2.6320   -0.7910 oh        1 MOL     -0.585380
    133 H60         7.5910   -1.1390    0.4590 hn        1 MOL      0.281487
    134 H61         9.0920   -2.7170    2.4900 h1        1 MOL      0.144180
    135 H62         9.6190   -4.0100    0.6300 h1        1 MOL      0.047481
    136 H63         9.7980   -3.3480   -1.4100 ho        1 MOL      0.346095
    137 H64        11.7990   -1.9740    0.9870 hc        1 MOL      0.132575
    138 H65        11.4880   -3.2500    2.0340 hc        1 MOL      0.132575
    139 H66        11.9930   -3.6970    0.3900 hc        1 MOL      0.132575
    140 N12         9.4840    0.1850    0.9170 n         1 MOL     -0.463440
    141 C43        10.0980    1.5210    1.0050 c3        1 MOL      0.003148
    142 C44         9.3820    2.6840    0.2330 c         1 MOL      0.566290
    143 O21         8.7240    2.3720   -0.7710 o         1 MOL     -0.514068
    144 C45        11.6050    1.5410    0.6120 c3        1 MOL     -0.446356
    145 C46        12.0560    0.6270   -0.5180 c3        1 MOL     -0.087050
    146 C47        11.3400    0.7970   -1.8820 c3        1 MOL      0.315250
    147 C48        11.8990   -0.1940   -2.8820 c3        1 MOL     -0.285236
    148 N13        10.9370   -1.2780   -3.1700 n4        1 MOL     -0.104087
    149 H67         9.0330   -0.0520    0.0380 hn        1 MOL      0.269436
    150 H68        10.1690    1.8170    2.0480 h1        1 MOL      0.092866
    151 H69        12.0860    1.1380    1.4950 hc        1 MOL      0.185118
    152 H70        11.9800    2.5420    0.4110 hc        1 MOL      0.185118
    153 H71        11.8640   -0.4270   -0.3310 hc        1 MOL      0.038917
    154 H72        13.1010    0.8430   -0.7140 hc        1 MOL      0.038917
    155 H73        11.4920    1.8000   -2.2940 hc        1 MOL     -0.012901
    156 H74        10.2680    0.6550   -1.7830 hc        1 MOL     -0.012901
    157 H75        12.7800   -0.6690   -2.4560 hx        1 MOL      0.141610
    158 H76        12.0100    0.3150   -3.8350 hx        1 MOL      0.141610
    159 H77        10.7480   -1.6940   -2.2670 hn        1 MOL      0.210855
    160 H78        10.0140   -0.9820   -3.4610 hn        1 MOL      0.210855
    161 H79        11.3350   -2.0270   -3.7230 hn        1 MOL      0.210855
    162 N14         9.6140    3.9380    0.5850 n         1 MOL     -0.504641
    163 C49         9.3140    5.1390   -0.1510 c3        1 MOL      0.245054
    164 C50         7.8990    5.4340   -0.6780 c         1 MOL      0.190928
    165 O22         7.7630    5.6510   -1.8950 o         1 MOL     -0.454062
    166 C51         9.9310    6.3860    0.4580 c3        1 MOL     -0.105945
    167 C52        10.2260    7.5770   -0.5390 c3        1 MOL     -0.206934
    168 C53         9.0490    8.2810   -1.1150 c         1 MOL      0.823095
    169 O23         9.0590    8.5240   -2.3360 o         1 MOL     -0.681161
    170 O24         8.2370    8.8290   -0.3670 o         1 MOL     -0.681161
    171 H80        10.2690    4.0030    1.3580 hn        1 MOL      0.262325
    172 H81         9.9420    5.1400   -1.0360 h1        1 MOL      0.061351
    173 H82        10.8780    6.1210    0.9350 hc        1 MOL      0.039018
    174 H83         9.3040    6.8640    1.2090 hc        1 MOL      0.039018
    175 H84        10.8820    7.2920   -1.3630 hc        1 MOL      0.038055
    176 H85        10.7240    8.3600    0.0240 hc        1 MOL      0.038055
    177 N15         6.7210    5.3490   -0.0320 n         1 MOL     -0.184446
    178 C54         6.6130    4.9750    1.3960 c3        1 MOL     -0.230205
    179 H86         6.7660    3.9010    1.5010 h1        1 MOL      0.093927
    180 H87         7.3720    5.5070    1.9700 h1        1 MOL      0.093927
    181 H88         5.6240    5.2390    1.7690 h1        1 MOL      0.093927
    182 H89         5.9110    5.7660   -0.4470 hn        1 MOL      0.280720
    183 Ca1        -6.2260    4.9520    0.8280 Ca        1 MOL      1.632573
    184 O25        -3.7090    5.5390    2.2870 oh        1 MOL     -0.754670
    185 H90        -2.8840    5.9180    1.9840 ho        1 MOL      0.391297
    186 H91        -4.1850    6.2720    2.6630 ho        1 MOL      0.391297
    187 O26        -7.0200    3.5880    2.9290 oh        1 MOL     -0.754670
    188 H92        -7.0430    3.5840    3.8900 ho        1 MOL      0.391297
    189 H93        -7.2600    2.6970    2.6770 ho        1 MOL      0.391297
@<TRIPOS>BOND
     1    1    2 1   
     2    1    4 1   
     3    1    5 1   
     4    1    6 1   
     5    2    3 2   
     6    2    7 1   
     7    7    8 1   
     8    7   15 1   
     9    8    9 1   
    10    8   11 1   
    11    8   16 1   
    12    9   10 2   
    13    9   19 1   
    14   11   12 1   
    15   11   17 1   
    16   11   18 1   
    17   12   13 1   
    18   12   14 1   
    19   19   20 1   
    20   19   28 1   
    21   20   21 1   
    22   20   23 1   
    23   20   29 1   
    24   21   22 2   
    25   21   41 1   
    26   23   24 1   
    27   23   30 1   
    28   23   31 1   
    29   24   25 1   
    30   24   32 1   
    31   24   33 1   
    32   25   26 1   
    33   25   34 1   
    34   25   35 1   
    35   26   27 1   
    36   26   36 1   
    37   26   37 1   
    38   27   38 1   
    39   27   39 1   
    40   27   40 1   
    41   41   42 1   
    42   41   49 1   
    43   42   43 1   
    44   42   45 1   
    45   42   50 1   
    46   43   44 2   
    47   43   53 1   
    48   45   46 1   
    49   45   51 1   
    50   45   52 1   
    51   46   47 1   
    52   46   48 1   
    53   53   54 1   
    54   53   57 1   
    55   54   55 1   
    56   54   58 1   
    57   54   59 1   
    58   55   56 2   
    59   55   60 1   
    60   60   61 1   
    61   60   68 1   
    62   61   62 1   
    63   61   64 1   
    64   61   69 1   
    65   62   63 2   
    66   62   72 1   
    67   64   65 1   
    68   64   70 1   
    69   64   71 1   
    70   65   66 1   
    71   65   67 1   
    72   72   73 1   
    73   72   76 1   
    74   73   74 1   
    75   73   77 1   
    76   73   78 1   
    77   74   75 2   
    78   74   79 1   
    79   79   80 1   
    80   79   86 1   
    81   80   81 1   
    82   80   83 1   
    83   80   87 1   
    84   81   82 2   
    85   81   93 1   
    86   83   84 1   
    87   83   85 1   
    88   83   88 1   
    89   84   90 1   
    90   84   91 1   
    91   84   92 1   
    92   85   89 1   
    93   93   94 1   
    94   93  101 1   
    95   94   95 1   
    96   94   97 1   
    97   94  102 1   
    98   95   96 2   
    99   95  112 1   
   100   97   98 1   
   101   97   99 1   
   102   97  103 1   
   103   98  100 1   
   104   98  104 1   
   105   98  105 1   
   106   99  106 1   
   107   99  107 1   
   108   99  108 1   
   109  100  109 1   
   110  100  110 1   
   111  100  111 1   
   112  112  113 1   
   113  112  119 1   
   114  113  114 1   
   115  113  116 1   
   116  113  120 1   
   117  114  115 2   
   118  114  126 1   
   119  116  117 1   
   120  116  118 1   
   121  116  121 1   
   122  117  123 1   
   123  117  124 1   
   124  117  125 1   
   125  118  122 1   
   126  126  127 1   
   127  126  133 1   
   128  127  128 1   
   129  127  130 1   
   130  127  134 1   
   131  128  129 2   
   132  128  140 1   
   133  130  131 1   
   134  130  132 1   
   135  130  135 1   
   136  131  137 1   
   137  131  138 1   
   138  131  139 1   
   139  132  136 1   
   140  140  141 1   
   141  140  149 1   
   142  141  142 1   
   143  141  144 1   
   144  141  150 1   
   145  142  143 2   
   146  142  162 1   
   147  144  145 1   
   148  144  151 1   
   149  144  152 1   
   150  145  146 1   
   151  145  153 1   
   152  145  154 1   
   153  146  147 1   
   154  146  155 1   
   155  146  156 1   
   156  147  148 1   
   157  147  157 1   
   158  147  158 1   
   159  148  159 1   
   160  148  160 1   
   161  148  161 1   
   162  162  163 1   
   163  162  171 1   
   164  163  164 1   
   165  163  166 1   
   166  163  172 1   
   167  164  165 2   
   168  164  177 1   
   169  166  167 1   
   170  166  173 1   
   171  166  174 1   
   172  167  168 1   
   173  167  175 1   
   174  167  176 1   
   175  168  169 1   
   176  168  170 1   
   177  177  178 1   
   178  177  182 1   
   179  178  179 1   
   180  178  180 1   
   181  178  181 1   
   182  184  185 1   
   183  184  186 1   
   184  187  188 1   
   185  187  189 1   
@<TRIPOS>SUBSTRUCTURE
     1 MOL         1 TEMP              0 ****  ****    0 ROOT
