@<TRIPOS>MOLECULE
MOL
  181   177     1     0     0
SMALL
resp


@<TRIPOS>ATOM
      1 C1          7.4780    3.3930    5.4930 c3        1 MOL     -0.219802
      2 C2          6.6460    2.4060    4.7010 c         1 MOL      0.707489
      3 O1          5.4310    2.5170    4.8110 o         1 MOL     -0.569551
      4 H1          7.9900    2.8700    6.3000 hc        1 MOL      0.052603
      5 H2          8.2150    3.8570    4.8370 hc        1 MOL      0.052603
      6 H3          6.8290    4.1620    5.9130 hc        1 MOL      0.052603
      7 N1          7.1390    1.5290    3.8220 n         1 MOL     -0.615455
      8 C3          8.4500    1.4690    3.2980 c3        1 MOL      0.127602
      9 C4          8.9200    0.0340    3.0020 c         1 MOL      0.488013
     10 O2          8.4680   -0.8640    3.7170 o         1 MOL     -0.459067
     11 C5          8.5300    2.2850    1.9800 c3        1 MOL      0.034388
     12 C6          7.5620    1.9230    0.8560 c         1 MOL      0.558327
     13 O3          6.3670    2.2680    1.0150 o         1 MOL     -0.690660
     14 O4          7.8480    1.1330   -0.0970 o         1 MOL     -0.690660
     15 H4          6.4280    0.9730    3.3560 hn        1 MOL      0.377754
     16 H5          9.1760    1.9720    3.9400 h1        1 MOL      0.024458
     17 H6          9.5090    2.3780    1.5000 hc        1 MOL     -0.026917
     18 H7          8.4160    3.3340    2.2320 hc        1 MOL     -0.026917
     19 N2          9.8120   -0.2370    2.0310 n         1 MOL     -0.520255
     20 C7         10.3140   -1.6260    1.6570 c3        1 MOL      0.174500
     21 C8          9.1200   -2.5850    1.2570 c         1 MOL      0.372047
     22 O5          8.9990   -3.7080    1.7190 o         1 MOL     -0.441311
     23 C9         11.1330   -2.2400    2.8100 c3        1 MOL     -0.392230
     24 H8         10.1980    0.5700    1.5650 hn        1 MOL      0.291830
     25 H9         11.0230   -1.4410    0.8560 h1        1 MOL      0.048739
     26 H10        10.4440   -2.5290    3.6050 hc        1 MOL      0.113495
     27 H11        11.5500   -3.2010    2.5050 hc        1 MOL      0.113495
     28 H12        11.9570   -1.5990    3.1260 hc        1 MOL      0.113495
     29 N3          8.1520   -2.1040    0.3940 n         1 MOL     -0.364855
     30 C10         7.0880   -2.9680   -0.1100 c3        1 MOL      0.052211
     31 C11         6.5890   -2.4440   -1.4680 c         1 MOL      0.465336
     32 O6          6.5010   -1.2260   -1.7190 o         1 MOL     -0.596295
     33 C12         5.9610   -3.1640    0.8980 c3        1 MOL      0.002274
     34 C13         5.2140   -1.8870    1.3670 c         1 MOL      0.753340
     35 O7          4.4090   -2.0040    2.3120 o         1 MOL     -0.715452
     36 O8          5.1850   -0.7870    0.7330 o         1 MOL     -0.715452
     37 H13         8.1030   -1.1140    0.2190 hn        1 MOL      0.216514
     38 H14         7.5010   -3.9690   -0.2380 h1        1 MOL      0.010633
     39 H15         6.3710   -3.6480    1.7860 hc        1 MOL      0.002209
     40 H16         5.2260   -3.8420    0.4470 hc        1 MOL      0.002209
     41 N4          6.2280   -3.3330   -2.4040 n         1 MOL     -0.315398
     42 C14         5.6890   -2.9350   -3.7190 c3        1 MOL     -0.419396
     43 C15         4.3160   -2.2440   -3.6830 c         1 MOL      0.589227
     44 O9          4.1150   -1.3230   -4.5360 o         1 MOL     -0.558379
     45 H17         6.2740   -4.2950   -2.0960 hn        1 MOL      0.274961
     46 H18         5.6100   -3.8750   -4.2780 h1        1 MOL      0.188933
     47 H19         6.4600   -2.2590   -4.0910 h1        1 MOL      0.188933
     48 N5          3.4010   -2.6790   -2.8000 n         1 MOL     -0.354509
     49 C16         2.0740   -2.0310   -2.5510 c3        1 MOL     -0.114548
     50 C17         2.2640   -0.5390   -2.1560 c         1 MOL      0.745121
     51 O10         3.2220   -0.0980   -1.5350 o         1 MOL     -0.681587
     52 C18         1.1800   -2.7930   -1.5600 c3        1 MOL     -0.000909
     53 C19         0.7590   -4.1050   -2.2050 c         1 MOL      0.624362
     54 N6          0.7640   -5.2200   -1.4530 n         1 MOL     -0.810494
     55 O11         0.5690   -4.1430   -3.4010 o         1 MOL     -0.518149
     56 H20         3.6370   -3.3910   -2.1250 hn        1 MOL      0.287813
     57 H21         1.5280   -1.9720   -3.5030 h1        1 MOL      0.101269
     58 H22         0.2700   -2.2970   -1.2500 hc        1 MOL      0.019827
     59 H23         1.7400   -2.9560   -0.6360 hc        1 MOL      0.019827
     60 H24         0.8800   -5.0870   -0.4580 hn        1 MOL      0.382393
     61 H25         0.0740   -5.8620   -1.7940 hn        1 MOL      0.382393
     62 N7          1.3120    0.2740   -2.6720 n         1 MOL     -0.621231
     63 C20         1.2400    1.7580   -2.4900 c3        1 MOL      0.094105
     64 C21         0.4100    2.4860   -3.6020 c         1 MOL      0.521808
     65 O12         0.3780    2.0340   -4.7390 o         1 MOL     -0.541016
     66 H26         0.6410   -0.1290   -3.3200 hn        1 MOL      0.344873
     67 H27         2.2600    2.1410   -2.4220 h1        1 MOL      0.095991
     68 H28         0.6540    1.8160   -1.5730 h1        1 MOL      0.095991
     69 N8         -0.2910    3.5970   -3.3840 n         1 MOL     -0.440497
     70 C22        -0.4040    4.2140   -2.1440 c3        1 MOL     -0.176188
     71 C23        -1.6560    3.7820   -1.3440 c         1 MOL      0.742837
     72 O13        -2.7570    4.0750   -1.7860 o         1 MOL     -0.576274
     73 C24        -0.3540    5.7580   -2.3590 c3        1 MOL      0.412840
     74 C25        -0.1720    6.4150   -0.9670 c3        1 MOL     -0.343399
     75 O14         0.6820    6.2060   -3.2020 oh        1 MOL     -0.661532
     76 H29        -0.8310    4.0130   -4.1280 hn        1 MOL      0.331510
     77 H30         0.4320    3.8990   -1.5330 h1        1 MOL      0.077305
     78 H31        -1.2880    6.1100   -2.8050 h1        1 MOL     -0.000249
     79 H32         0.5540    7.1370   -3.3620 ho        1 MOL      0.400159
     80 H33        -1.1570    6.4000   -0.4870 hc        1 MOL      0.088454
     81 H34         0.5450    5.8320   -0.3940 hc        1 MOL      0.088454
     82 H35         0.1130    7.4700   -1.0090 hc        1 MOL      0.088454
     83 N9         -1.6120    3.2550   -0.1270 n         1 MOL     -0.634055
     84 C26        -2.7900    2.8400    0.6240 c3        1 MOL      0.038349
     85 C27        -3.4790    4.1500    1.2030 c         1 MOL      0.565308
     86 O15        -2.8120    5.0080    1.7810 o         1 MOL     -0.593015
     87 C28        -2.3750    1.8270    1.7590 c3        1 MOL      0.194731
     88 C29        -1.7600    0.5740    1.0510 c3        1 MOL      0.015836
     89 C30        -3.5480    1.5220    2.6680 c3        1 MOL     -0.256793
     90 C31        -1.0960   -0.3900    2.0640 c3        1 MOL     -0.187863
     91 H36        -0.7040    3.2010    0.3260 hn        1 MOL      0.283441
     92 H37        -3.5540    2.4240   -0.0400 h1        1 MOL      0.083526
     93 H38        -1.6140    2.1890    2.4490 hc        1 MOL     -0.009584
     94 H39        -0.9290    0.9140    0.4450 hc        1 MOL     -0.018062
     95 H40        -2.5320    0.1370    0.4120 hc        1 MOL     -0.018062
     96 H41        -3.9630    2.4520    3.0680 hc        1 MOL      0.062135
     97 H42        -4.2740    1.1270    1.9520 hc        1 MOL      0.062135
     98 H43        -3.3570    0.7390    3.3900 hc        1 MOL      0.062135
     99 H44        -0.5260   -1.1260    1.4960 hc        1 MOL      0.048065
    100 H45        -0.3820    0.1890    2.6520 hc        1 MOL      0.048065
    101 H46        -1.6950   -0.9990    2.7380 hc        1 MOL      0.048065
    102 N10        -4.8100    4.3990    1.0140 n         1 MOL     -0.444778
    103 C32        -5.7410    3.7670    0.0480 c3        1 MOL      0.284859
    104 C33        -6.5170    2.4730    0.5680 c         1 MOL      0.490091
    105 O16        -6.6650    2.2350    1.7810 o         1 MOL     -0.508838
    106 C34        -6.8050    4.7980   -0.4200 c3        1 MOL     -0.256570
    107 C35        -7.7700    5.2700    0.6200 c         1 MOL      0.744747
    108 O17        -9.0210    5.1120    0.4720 o         1 MOL     -0.718920
    109 O18        -7.3300    5.7170    1.7020 o         1 MOL     -0.718920
    110 H47        -5.2000    5.1620    1.5480 hn        1 MOL      0.283450
    111 H48        -5.1750    3.5060   -0.8450 h1        1 MOL      0.010413
    112 H49        -7.3450    4.2760   -1.2010 hc        1 MOL      0.011974
    113 H50        -6.2090    5.6490   -0.7630 hc        1 MOL      0.011974
    114 N11        -7.0930    1.7880   -0.4200 n         1 MOL     -0.653583
    115 C36        -7.7320    0.4990   -0.1640 c3        1 MOL      0.494219
    116 C37        -7.8920   -0.3480   -1.3670 c         1 MOL      0.283026
    117 O19        -8.1740    0.1680   -2.4490 o         1 MOL     -0.502607
    118 C38        -9.1010    0.7090    0.5520 c3        1 MOL     -0.239495
    119 C39        -9.5270   -0.4350    1.5040 ca        1 MOL      0.034198
    120 C40       -10.1450   -1.6080    0.9470 ca        1 MOL     -0.159556
    121 C41        -9.2010   -0.2990    2.8710 ca        1 MOL     -0.159556
    122 C42       -10.3480   -2.6790    1.8740 ca        1 MOL     -0.108689
    123 C43        -9.3350   -1.4190    3.7190 ca        1 MOL     -0.108689
    124 C44        -9.9450   -2.5570    3.2360 ca        1 MOL     -0.163278
    125 H51        -6.8620    2.0180   -1.3730 hn        1 MOL      0.330160
    126 H52        -7.0790   -0.0090    0.5470 h1        1 MOL     -0.032440
    127 H53        -9.8980    0.8700   -0.1720 hc        1 MOL      0.102638
    128 H54        -9.2290    1.5870    1.1830 hc        1 MOL      0.102638
    129 H55       -10.4270   -1.6380   -0.0910 ha        1 MOL      0.143448
    130 H56        -8.7770    0.5740    3.3390 ha        1 MOL      0.143448
    131 H57       -10.6820   -3.6170    1.4510 ha        1 MOL      0.103296
    132 H58        -9.0060   -1.3590    4.7400 ha        1 MOL      0.103296
    133 H59        -9.9590   -3.3530    3.9720 ha        1 MOL      0.096774
    134 N12        -7.7770   -1.7250   -1.1780 n         1 MOL      0.003344
    135 C45        -7.2060   -2.4730   -0.0530 c3        1 MOL     -0.033249
    136 C46        -5.7120   -2.1920    0.1610 c         1 MOL      0.540739
    137 O20        -5.2300   -1.1850   -0.2260 o         1 MOL     -0.528171
    138 C47        -7.5350   -4.0460   -0.3310 c3        1 MOL     -0.077687
    139 C48        -8.6500   -3.9670   -1.3900 c3        1 MOL      0.074827
    140 C49        -8.1820   -2.7420   -2.1770 c3        1 MOL     -0.238661
    141 H60        -7.6870   -2.1710    0.8730 h1        1 MOL      0.008757
    142 H61        -6.6380   -4.4330   -0.8000 hc        1 MOL      0.054461
    143 H62        -7.8440   -4.7080    0.4790 hc        1 MOL      0.054461
    144 H63        -8.7030   -4.8550   -2.0150 hc        1 MOL     -0.007947
    145 H64        -9.6440   -3.8730   -0.9530 hc        1 MOL     -0.007947
    146 H65        -7.3760   -2.9470   -2.8680 h1        1 MOL      0.112651
    147 H66        -9.0120   -2.3590   -2.7680 h1        1 MOL      0.112651
    148 N13        -4.9930   -3.1740    0.7460 n         1 MOL     -0.424454
    149 C50        -3.6300   -2.9980    1.2170 c3        1 MOL      0.313728
    150 C51        -3.1870   -3.8720    2.3750 c         1 MOL      0.404966
    151 O21        -2.0860   -4.4220    2.4390 o         1 MOL     -0.548052
    152 C52        -2.6840   -3.1740   -0.0030 c3        1 MOL     -0.268617
    153 C53        -2.4790   -4.5490   -0.6710 c3        1 MOL     -0.055228
    154 C54        -3.7420   -5.1370   -1.2990 c         1 MOL      0.829906
    155 O22        -4.1590   -4.5980   -2.3500 o         1 MOL     -0.764417
    156 O23        -4.2940   -6.1580   -0.9250 o         1 MOL     -0.764417
    157 H67        -5.4910   -4.0050    1.0340 hn        1 MOL      0.221214
    158 H68        -3.6260   -1.9830    1.6100 h1        1 MOL      0.070660
    159 H69        -1.6590   -2.8770    0.2090 hc        1 MOL      0.092727
    160 H70        -3.0370   -2.5440   -0.8210 hc        1 MOL      0.092727
    161 H71        -2.1460   -5.2490    0.0930 hc        1 MOL     -0.045967
    162 H72        -1.7930   -4.3940   -1.5050 hc        1 MOL     -0.045967
    163 N14        -3.9110   -3.9980    3.4630 n         1 MOL     -0.363093
    164 C55        -5.0270   -3.1920    3.9610 c3        1 MOL     -0.071571
    165 H73        -4.9330   -3.0690    5.0400 h1        1 MOL      0.061254
    166 H74        -5.0120   -2.2140    3.4810 h1        1 MOL      0.061254
    167 H75        -5.9680   -3.6930    3.7350 h1        1 MOL      0.061254
    168 H76        -3.5540   -4.6560    4.1480 hn        1 MOL      0.280136
    169 Ca1         5.4830    1.1270   -1.1050 Ca        1 MOL      1.789284
    170 O24         4.4690    2.2380   -3.6690 oh        1 MOL     -0.794810
    171 H77         4.6130    3.0530   -4.1530 ho        1 MOL      0.396653
    172 H78         4.4740    1.5540   -4.3340 ho        1 MOL      0.396653
    173 O25         6.4250    3.5740   -1.6640 oh        1 MOL     -0.794810
    174 H79         5.9670    4.4020   -1.5590 ho        1 MOL      0.396653
    175 H80         7.0090    3.6990   -2.4040 ho        1 MOL      0.396653
    176 O26         6.9450    0.8220   -3.3650 oh        1 MOL     -0.794810
    177 H81         6.8760    0.9180   -4.3200 ho        1 MOL      0.396653
    178 H82         7.6030    0.1400   -3.2460 ho        1 MOL      0.396653
    179 O27         3.5560    3.1050   -0.5210 oh        1 MOL     -0.794810
    180 H83         3.3590    3.8890   -1.0460 ho        1 MOL      0.396653
    181 H84         2.7840    2.9960    0.0320 ho        1 MOL      0.396653
@<TRIPOS>BOND
     1    1    2 1   
     2    1    4 1   
     3    1    5 1   
     4    1    6 1   
     5    2    3 2   
     6    2    7 1   
     7    7    8 1   
     8    7   15 1   
     9    8    9 1   
    10    8   11 1   
    11    8   16 1   
    12    9   10 2   
    13    9   19 1   
    14   11   12 1   
    15   11   17 1   
    16   11   18 1   
    17   12   13 1   
    18   12   14 1   
    19   19   20 1   
    20   19   24 1   
    21   20   21 1   
    22   20   23 1   
    23   20   25 1   
    24   21   22 2   
    25   21   29 1   
    26   23   26 1   
    27   23   27 1   
    28   23   28 1   
    29   29   30 1   
    30   29   37 1   
    31   30   31 1   
    32   30   33 1   
    33   30   38 1   
    34   31   32 2   
    35   31   41 1   
    36   33   34 1   
    37   33   39 1   
    38   33   40 1   
    39   34   35 1   
    40   34   36 1   
    41   41   42 1   
    42   41   45 1   
    43   42   43 1   
    44   42   46 1   
    45   42   47 1   
    46   43   44 2   
    47   43   48 1   
    48   48   49 1   
    49   48   56 1   
    50   49   50 1   
    51   49   52 1   
    52   49   57 1   
    53   50   51 2   
    54   50   62 1   
    55   52   53 1   
    56   52   58 1   
    57   52   59 1   
    58   53   54 1   
    59   53   55 2   
    60   54   60 1   
    61   54   61 1   
    62   62   63 1   
    63   62   66 1   
    64   63   64 1   
    65   63   67 1   
    66   63   68 1   
    67   64   65 2   
    68   64   69 1   
    69   69   70 1   
    70   69   76 1   
    71   70   71 1   
    72   70   73 1   
    73   70   77 1   
    74   71   72 2   
    75   71   83 1   
    76   73   74 1   
    77   73   75 1   
    78   73   78 1   
    79   74   80 1   
    80   74   81 1   
    81   74   82 1   
    82   75   79 1   
    83   83   84 1   
    84   83   91 1   
    85   84   85 1   
    86   84   87 1   
    87   84   92 1   
    88   85   86 2   
    89   85  102 1   
    90   87   88 1   
    91   87   89 1   
    92   87   93 1   
    93   88   90 1   
    94   88   94 1   
    95   88   95 1   
    96   89   96 1   
    97   89   97 1   
    98   89   98 1   
    99   90   99 1   
   100   90  100 1   
   101   90  101 1   
   102  102  103 1   
   103  102  110 1   
   104  103  104 1   
   105  103  106 1   
   106  103  111 1   
   107  104  105 2   
   108  104  114 1   
   109  106  107 1   
   110  106  112 1   
   111  106  113 1   
   112  107  108 1   
   113  107  109 1   
   114  114  115 1   
   115  114  125 1   
   116  115  116 1   
   117  115  118 1   
   118  115  126 1   
   119  116  117 2   
   120  116  134 1   
   121  118  119 1   
   122  118  127 1   
   123  118  128 1   
   124  119  120 ar  
   125  119  121 ar  
   126  120  122 ar  
   127  120  129 1   
   128  121  123 ar  
   129  121  130 1   
   130  122  124 ar  
   131  122  131 1   
   132  123  124 ar  
   133  123  132 1   
   134  124  133 1   
   135  134  135 1   
   136  134  140 1   
   137  135  136 1   
   138  135  138 1   
   139  135  141 1   
   140  136  137 2   
   141  136  148 1   
   142  138  139 1   
   143  138  142 1   
   144  138  143 1   
   145  139  140 1   
   146  139  144 1   
   147  139  145 1   
   148  140  146 1   
   149  140  147 1   
   150  148  149 1   
   151  148  157 1   
   152  149  150 1   
   153  149  152 1   
   154  149  158 1   
   155  150  151 2   
   156  150  163 1   
   157  152  153 1   
   158  152  159 1   
   159  152  160 1   
   160  153  154 1   
   161  153  161 1   
   162  153  162 1   
   163  154  155 1   
   164  154  156 1   
   165  163  164 1   
   166  163  168 1   
   167  164  165 1   
   168  164  166 1   
   169  164  167 1   
   170  170  171 1   
   171  170  172 1   
   172  173  174 1   
   173  173  175 1   
   174  176  177 1   
   175  176  178 1   
   176  179  180 1   
   177  179  181 1   
@<TRIPOS>SUBSTRUCTURE
     1 MOL         1 TEMP              0 ****  ****    0 ROOT
