@<TRIPOS>MOLECULE
MOL
  181   177     1     0     0
SMALL
resp


@<TRIPOS>ATOM
      1 C1          1.9160    6.3890   -1.6150 c3        1 MOL     -0.404709
      2 C2          3.3420    6.5280   -0.9350 c         1 MOL      0.751886
      3 O1          3.4090    7.2100    0.0610 o         1 MOL     -0.609364
      4 H1          1.1470    6.7140   -0.9140 hc        1 MOL      0.094952
      5 H2          1.8770    7.0110   -2.5090 hc        1 MOL      0.094952
      6 H3          1.7430    5.3480   -1.8880 hc        1 MOL      0.094952
      7 N1          4.3330    5.8200   -1.4390 n         1 MOL     -0.699434
      8 C3          5.5880    5.4440   -0.7050 c3        1 MOL      0.280632
      9 C4          5.3760    4.1600    0.1940 c         1 MOL      0.577156
     10 O2          4.8650    3.1280   -0.2300 o         1 MOL     -0.554516
     11 C5          6.6690    5.4570   -1.8100 c3        1 MOL     -0.152412
     12 C6          8.1220    5.2170   -1.3750 c         1 MOL      0.697797
     13 O3          8.9520    4.9460   -2.2760 o         1 MOL     -0.737696
     14 O4          8.4390    5.1810   -0.1960 o         1 MOL     -0.737696
     15 H4          4.1460    5.2860   -2.2700 hn        1 MOL      0.324365
     16 H5          5.8560    6.2430   -0.0240 h1        1 MOL      0.012396
     17 H6          6.7410    6.3840   -2.3830 hc        1 MOL      0.005402
     18 H7          6.4160    4.7220   -2.5770 hc        1 MOL      0.005402
     19 N2          5.7970    4.2840    1.4390 n         1 MOL     -0.512138
     20 C7          5.8240    3.2040    2.4240 c3        1 MOL      0.212024
     21 C8          4.3480    2.6760    2.7920 c         1 MOL      0.552485
     22 O5          3.4650    3.4650    3.1520 o         1 MOL     -0.548596
     23 C9          6.5820    3.8070    3.6320 c3        1 MOL     -0.357537
     24 H8          6.1050    5.2090    1.7230 hn        1 MOL      0.292024
     25 H9          6.3870    2.3630    2.0310 h1        1 MOL      0.076289
     26 H10         7.5540    4.2280    3.3770 hc        1 MOL      0.094184
     27 H11         6.0370    4.6510    4.0670 hc        1 MOL      0.094184
     28 H12         6.6320    3.1260    4.4780 hc        1 MOL      0.094184
     29 N3          4.0120    1.3870    2.8650 n         1 MOL     -0.317250
     30 C10         4.8840    0.3040    3.2180 c3        1 MOL     -0.099005
     31 C11         5.5960   -0.3070    1.9840 c         1 MOL      0.454220
     32 O6          4.9250   -0.5030    0.9120 o         1 MOL     -0.503881
     33 C12         4.1520   -0.6710    4.1430 c3        1 MOL     -0.067050
     34 C13         2.8800   -1.1220    3.4820 c         1 MOL      0.618117
     35 O7          1.8570   -0.4060    3.6070 o         1 MOL     -0.707400
     36 O8          2.7210   -2.2400    2.8780 o         1 MOL     -0.707400
     37 H13         3.0110    1.2060    2.8360 hn        1 MOL      0.234128
     38 H14         5.7320    0.6700    3.7980 h1        1 MOL      0.042208
     39 H15         4.0360   -0.1900    5.1120 hc        1 MOL      0.040765
     40 H16         4.7980   -1.5240    4.3630 hc        1 MOL      0.040765
     41 N4          6.8840   -0.6230    2.1480 n         1 MOL     -0.326356
     42 C14         7.7230   -1.1790    1.1280 c3        1 MOL     -0.113064
     43 C15         7.5580   -0.5940   -0.3280 c         1 MOL      0.384237
     44 O9          7.6620    0.6040   -0.5610 o         1 MOL     -0.430349
     45 H17         7.3170   -0.3540    3.0140 hn        1 MOL      0.275376
     46 H18         7.5500   -2.2550    1.0350 h1        1 MOL      0.082911
     47 H19         8.7650   -1.0390    1.4260 h1        1 MOL      0.082911
     48 N5          7.1280   -1.3210   -1.3500 n         1 MOL     -0.329786
     49 C16         6.5290   -2.6830   -1.3060 c3        1 MOL     -0.017706
     50 C17         5.2600   -2.7530   -2.1510 c         1 MOL      0.544791
     51 O10         5.0860   -3.7520   -2.8740 o         1 MOL     -0.535279
     52 C18         7.6600   -3.6290   -1.7960 c3        1 MOL     -0.224431
     53 C19         8.4730   -3.1620   -3.0170 c         1 MOL      0.678840
     54 N6          9.7770   -3.3300   -3.0420 n         1 MOL     -0.828204
     55 O11         7.9420   -2.6460   -3.9330 o         1 MOL     -0.507107
     56 H20         6.9960   -0.7500   -2.1740 hn        1 MOL      0.278045
     57 H21         6.2910   -3.0350   -0.3040 h1        1 MOL      0.135720
     58 H22         7.2570   -4.6330   -1.9170 hc        1 MOL      0.048542
     59 H23         8.4050   -3.7030   -1.0070 hc        1 MOL      0.048542
     60 H24        10.2140   -3.5520   -2.1690 hn        1 MOL      0.367437
     61 H25        10.3370   -2.9710   -3.7960 hn        1 MOL      0.367437
     62 N7          4.2890   -1.8350   -2.0250 n         1 MOL     -0.277221
     63 C20         3.0600   -1.6880   -2.8460 c3        1 MOL     -0.167947
     64 C21         2.0300   -2.8250   -2.9240 c         1 MOL      0.540559
     65 O12         1.2520   -2.8580   -3.8930 o         1 MOL     -0.540704
     66 H26         4.3020   -1.2530   -1.2000 hn        1 MOL      0.232666
     67 H27         3.3090   -1.3700   -3.8570 h1        1 MOL      0.118041
     68 H28         2.4340   -0.9040   -2.4120 h1        1 MOL      0.118041
     69 N8          1.9620   -3.7220   -1.8850 n         1 MOL     -0.169325
     70 C22         0.8330   -4.5990   -1.6980 c3        1 MOL     -0.478336
     71 C23        -0.2540   -3.7260   -1.1270 c         1 MOL      0.808764
     72 O13        -0.2040   -3.0010   -0.0950 o         1 MOL     -0.736056
     73 C24         1.1580   -5.8630   -0.9820 c3        1 MOL      0.404777
     74 C25         2.1840   -6.7140   -1.7670 c3        1 MOL     -0.402594
     75 O14         1.8360   -5.6000    0.2610 oh        1 MOL     -0.530043
     76 H29         2.7240   -3.7280   -1.2290 hn        1 MOL      0.206383
     77 H30         0.4790   -5.0120   -2.6490 h1        1 MOL      0.174599
     78 H31         0.2160   -6.3800   -0.7880 h1        1 MOL      0.006437
     79 H32         1.8150   -6.4220    0.7530 ho        1 MOL      0.339982
     80 H33         1.8360   -7.0730   -2.7340 hc        1 MOL      0.112754
     81 H34         3.1260   -6.1620   -1.7200 hc        1 MOL      0.112754
     82 H35         2.3380   -7.6200   -1.1880 hc        1 MOL      0.112754
     83 N9         -1.4040   -3.6880   -1.7930 n         1 MOL     -0.279264
     84 C26        -2.5860   -2.8150   -1.5530 c3        1 MOL     -0.483258
     85 C27        -3.4110   -3.3800   -0.4330 c         1 MOL      0.604653
     86 O15        -3.6400   -4.5430   -0.3970 o         1 MOL     -0.517421
     87 C28        -3.3940   -2.6850   -2.8730 c3        1 MOL      0.123588
     88 C29        -4.7060   -1.8030   -2.6390 c3        1 MOL      0.072732
     89 C30        -2.5130   -2.2890   -4.0310 c3        1 MOL     -0.039440
     90 C31        -5.3900   -1.6420   -3.9370 c3        1 MOL     -0.269412
     91 H36        -1.5710   -4.2100   -2.6460 hn        1 MOL      0.243585
     92 H37        -2.3380   -1.8070   -1.2360 h1        1 MOL      0.304580
     93 H38        -3.7240   -3.6640   -3.2290 hc        1 MOL      0.032223
     94 H39        -4.4740   -0.8050   -2.2760 hc        1 MOL      0.008768
     95 H40        -5.5090   -2.2780   -2.0630 hc        1 MOL      0.008768
     96 H41        -1.5380   -2.7810   -4.0810 hc        1 MOL      0.010447
     97 H42        -3.0950   -2.5740   -4.9140 hc        1 MOL      0.010447
     98 H43        -2.4180   -1.2130   -4.1270 hc        1 MOL      0.010447
     99 H44        -4.7330   -1.1210   -4.6350 hc        1 MOL      0.051119
    100 H45        -5.5580   -2.6320   -4.3470 hc        1 MOL      0.051119
    101 H46        -6.3720   -1.1790   -3.9180 hc        1 MOL      0.051119
    102 N10        -3.9400   -2.5000    0.4700 n         1 MOL     -0.491331
    103 C32        -4.8800   -2.9540    1.5550 c3        1 MOL      0.097242
    104 C33        -6.0950   -1.9810    1.5480 c         1 MOL      0.294135
    105 O16        -7.1270   -2.2380    2.1550 o         1 MOL     -0.518158
    106 C34        -4.0820   -3.0230    2.8370 c3        1 MOL      0.069654
    107 C35        -2.8900   -3.9890    2.9660 c         1 MOL      0.587374
    108 O17        -3.0790   -5.1750    3.2040 o         1 MOL     -0.678408
    109 O18        -1.6950   -3.5680    2.7760 o         1 MOL     -0.678408
    110 H47        -3.7110   -1.5170    0.4540 hn        1 MOL      0.277714
    111 H48        -5.2730   -3.9530    1.3810 h1        1 MOL      0.083101
    112 H49        -4.7830   -3.2190    3.6470 hc        1 MOL     -0.036988
    113 H50        -3.6510   -2.0330    2.9780 hc        1 MOL     -0.036988
    114 N11        -6.0020   -0.8830    0.7790 n         1 MOL     -0.135772
    115 C36        -7.1060    0.0940    0.5840 c3        1 MOL     -0.020013
    116 C37        -6.5530    1.5230    0.3380 c         1 MOL      0.194951
    117 O19        -6.5290    2.0890   -0.7650 o         1 MOL     -0.318168
    118 C38        -8.0780   -0.3770   -0.4830 c3        1 MOL     -0.413599
    119 C39        -9.2030    0.5260   -0.9040 ca        1 MOL      0.250099
    120 C40       -10.1450    0.8280    0.1040 ca        1 MOL     -0.206026
    121 C41        -9.3920    0.7250   -2.2720 ca        1 MOL     -0.206026
    122 C42       -11.2570    1.5340   -0.3490 ca        1 MOL     -0.069863
    123 C43       -10.4240    1.4960   -2.6560 ca        1 MOL     -0.069863
    124 C44       -11.3560    1.8670   -1.6920 ca        1 MOL     -0.185855
    125 H51        -5.1040   -0.7410    0.3420 hn        1 MOL      0.259003
    126 H52        -7.6460    0.1560    1.5200 h1        1 MOL      0.120700
    127 H53        -8.5540   -1.3130   -0.1870 hc        1 MOL      0.152884
    128 H54        -7.4340   -0.6500   -1.3320 hc        1 MOL      0.152884
    129 H55       -10.0910    0.5020    1.1340 ha        1 MOL      0.135452
    130 H56        -8.6100    0.3560   -2.9160 ha        1 MOL      0.135452
    131 H57       -12.0280    1.8230    0.3470 ha        1 MOL      0.095162
    132 H58       -10.6030    1.7240   -3.7020 ha        1 MOL      0.095162
    133 H59       -12.1880    2.4860   -1.9830 ha        1 MOL      0.100274
    134 N12        -6.0340    2.1640    1.4490 n         1 MOL     -0.037737
    135 C45        -5.6090    3.5890    1.4850 c3        1 MOL      0.029767
    136 C46        -4.7060    4.0750    0.3720 c         1 MOL      0.314377
    137 O20        -4.7690    5.2430   -0.0230 o         1 MOL     -0.492214
    138 C47        -4.8240    3.7280    2.8190 c3        1 MOL      0.012152
    139 C48        -5.5130    2.7000    3.7420 c3        1 MOL     -0.148520
    140 C49        -5.8700    1.5140    2.7580 c3        1 MOL     -0.083957
    141 H60        -6.4460    4.2930    1.4710 h1        1 MOL      0.059508
    142 H61        -3.7720    3.4120    2.7170 hc        1 MOL      0.035616
    143 H62        -4.8580    4.7180    3.2770 hc        1 MOL      0.035616
    144 H63        -4.8780    2.2590    4.5070 hc        1 MOL      0.054868
    145 H64        -6.4270    3.1240    4.1660 hc        1 MOL      0.054868
    146 H65        -5.0320    0.8190    2.7090 h1        1 MOL      0.077560
    147 H66        -6.7350    0.9180    3.0440 h1        1 MOL      0.077560
    148 N13        -3.9330    3.1510   -0.2090 n         1 MOL     -0.180606
    149 C50        -3.1790    3.4120   -1.4090 c3        1 MOL     -0.145591
    150 C51        -3.9620    3.8340   -2.6800 c         1 MOL      0.478676
    151 O21        -3.3790    4.5800   -3.4390 o         1 MOL     -0.569122
    152 C52        -2.5250    2.0600   -1.7670 c3        1 MOL     -0.072959
    153 C53        -1.6140    1.6490   -0.5730 c3        1 MOL     -0.326767
    154 C54        -2.0960    0.5310    0.3090 c         1 MOL      0.755975
    155 O22        -1.2760   -0.1750    0.9240 o         1 MOL     -0.765042
    156 O23        -3.3010    0.2540    0.5110 o         1 MOL     -0.765042
    157 H67        -3.8180    2.2430    0.2150 hn        1 MOL      0.261806
    158 H68        -2.4020    4.1600   -1.2310 h1        1 MOL      0.137266
    159 H69        -1.9260    2.1730   -2.6600 hc        1 MOL      0.053997
    160 H70        -3.1990    1.2050   -1.8910 hc        1 MOL      0.053997
    161 H71        -1.3290    2.5350   -0.0080 hc        1 MOL      0.128033
    162 H72        -0.7110    1.2950   -1.0690 hc        1 MOL      0.128033
    163 N14        -5.2050    3.5380   -2.8870 n         1 MOL     -0.061188
    164 C55        -6.0600    4.0440   -3.9200 c3        1 MOL     -0.282273
    165 H73        -7.0270    3.5420   -3.8700 h1        1 MOL      0.105706
    166 H74        -6.2000    5.1170   -3.7840 h1        1 MOL      0.105706
    167 H75        -5.6050    3.8580   -4.8930 h1        1 MOL      0.105706
    168 H76        -5.5880    3.0230   -2.1060 hn        1 MOL      0.074290
    169 Ca1         0.0790   -1.8610    2.2320 Ca        1 MOL      1.736894
    170 O24        -1.8120   -0.2740    3.5590 oh        1 MOL     -0.773342
    171 H77        -2.2050    0.3980    4.1190 ho        1 MOL      0.384707
    172 H78        -2.0430   -0.0020    2.6690 ho        1 MOL      0.384707
    173 O25        -0.0240   -2.4870    4.8880 oh        1 MOL     -0.773342
    174 H79         0.1040   -3.4050    5.1420 ho        1 MOL      0.384707
    175 H80        -0.1180   -2.0240    5.7160 ho        1 MOL      0.384707
    176 O26         1.8200   -0.6830    0.6270 oh        1 MOL     -0.773342
    177 H81         2.5690   -1.0580    1.1010 ho        1 MOL      0.384707
    178 H82         2.2050   -0.0340    0.0400 ho        1 MOL      0.384707
    179 O27         1.0280   -4.3420    2.4700 oh        1 MOL     -0.773342
    180 H83         1.1720   -4.5350    1.5360 ho        1 MOL      0.384707
    181 H84         0.3050   -4.9150    2.7150 ho        1 MOL      0.384707
@<TRIPOS>BOND
     1    1    2 1   
     2    1    4 1   
     3    1    5 1   
     4    1    6 1   
     5    2    3 2   
     6    2    7 1   
     7    7    8 1   
     8    7   15 1   
     9    8    9 1   
    10    8   11 1   
    11    8   16 1   
    12    9   10 2   
    13    9   19 1   
    14   11   12 1   
    15   11   17 1   
    16   11   18 1   
    17   12   13 1   
    18   12   14 1   
    19   19   20 1   
    20   19   24 1   
    21   20   21 1   
    22   20   23 1   
    23   20   25 1   
    24   21   22 2   
    25   21   29 1   
    26   23   26 1   
    27   23   27 1   
    28   23   28 1   
    29   29   30 1   
    30   29   37 1   
    31   30   31 1   
    32   30   33 1   
    33   30   38 1   
    34   31   32 2   
    35   31   41 1   
    36   33   34 1   
    37   33   39 1   
    38   33   40 1   
    39   34   35 1   
    40   34   36 1   
    41   41   42 1   
    42   41   45 1   
    43   42   43 1   
    44   42   46 1   
    45   42   47 1   
    46   43   44 2   
    47   43   48 1   
    48   48   49 1   
    49   48   56 1   
    50   49   50 1   
    51   49   52 1   
    52   49   57 1   
    53   50   51 2   
    54   50   62 1   
    55   52   53 1   
    56   52   58 1   
    57   52   59 1   
    58   53   54 1   
    59   53   55 2   
    60   54   60 1   
    61   54   61 1   
    62   62   63 1   
    63   62   66 1   
    64   63   64 1   
    65   63   67 1   
    66   63   68 1   
    67   64   65 2   
    68   64   69 1   
    69   69   70 1   
    70   69   76 1   
    71   70   71 1   
    72   70   73 1   
    73   70   77 1   
    74   71   72 2   
    75   71   83 1   
    76   73   74 1   
    77   73   75 1   
    78   73   78 1   
    79   74   80 1   
    80   74   81 1   
    81   74   82 1   
    82   75   79 1   
    83   83   84 1   
    84   83   91 1   
    85   84   85 1   
    86   84   87 1   
    87   84   92 1   
    88   85   86 2   
    89   85  102 1   
    90   87   88 1   
    91   87   89 1   
    92   87   93 1   
    93   88   90 1   
    94   88   94 1   
    95   88   95 1   
    96   89   96 1   
    97   89   97 1   
    98   89   98 1   
    99   90   99 1   
   100   90  100 1   
   101   90  101 1   
   102  102  103 1   
   103  102  110 1   
   104  103  104 1   
   105  103  106 1   
   106  103  111 1   
   107  104  105 2   
   108  104  114 1   
   109  106  107 1   
   110  106  112 1   
   111  106  113 1   
   112  107  108 1   
   113  107  109 1   
   114  114  115 1   
   115  114  125 1   
   116  115  116 1   
   117  115  118 1   
   118  115  126 1   
   119  116  117 2   
   120  116  134 1   
   121  118  119 1   
   122  118  127 1   
   123  118  128 1   
   124  119  120 ar  
   125  119  121 ar  
   126  120  122 ar  
   127  120  129 1   
   128  121  123 ar  
   129  121  130 1   
   130  122  124 ar  
   131  122  131 1   
   132  123  124 ar  
   133  123  132 1   
   134  124  133 1   
   135  134  135 1   
   136  134  140 1   
   137  135  136 1   
   138  135  138 1   
   139  135  141 1   
   140  136  137 2   
   141  136  148 1   
   142  138  139 1   
   143  138  142 1   
   144  138  143 1   
   145  139  140 1   
   146  139  144 1   
   147  139  145 1   
   148  140  146 1   
   149  140  147 1   
   150  148  149 1   
   151  148  157 1   
   152  149  150 1   
   153  149  152 1   
   154  149  158 1   
   155  150  151 2   
   156  150  163 1   
   157  152  153 1   
   158  152  159 1   
   159  152  160 1   
   160  153  154 1   
   161  153  161 1   
   162  153  162 1   
   163  154  155 1   
   164  154  156 1   
   165  163  164 1   
   166  163  168 1   
   167  164  165 1   
   168  164  166 1   
   169  164  167 1   
   170  170  171 1   
   171  170  172 1   
   172  173  174 1   
   173  173  175 1   
   174  176  177 1   
   175  176  178 1   
   176  179  180 1   
   177  179  181 1   
@<TRIPOS>SUBSTRUCTURE
     1 MOL         1 TEMP              0 ****  ****    0 ROOT
