@<TRIPOS>MOLECULE
MOL
  184   179     1     0     0
SMALL
resp


@<TRIPOS>ATOM
      1 C1         10.3320    4.9610   -3.3520 c3        1 MOL     -0.431147
      2 C2         10.1320    4.5490   -1.8760 c         1 MOL      0.722875
      3 O1          9.9360    5.4420   -0.9840 o         1 MOL     -0.616757
      4 H1         10.5630    4.0770   -3.9470 hc        1 MOL      0.118007
      5 H2          9.4190    5.4220   -3.7280 hc        1 MOL      0.118007
      6 H3         11.1540    5.6720   -3.4230 hc        1 MOL      0.118007
      7 N1         10.1400    3.3250   -1.4710 n         1 MOL     -0.663222
      8 C3         10.0320    2.1000   -2.2730 c3        1 MOL      0.277825
      9 C4         10.5690    0.8100   -1.6100 c         1 MOL      0.389241
     10 O2         11.0500   -0.0970   -2.2900 o         1 MOL     -0.521857
     11 C5          8.5680    1.8640   -2.6690 c3        1 MOL     -0.268883
     12 C6          7.4520    1.8720   -1.5820 c         1 MOL      1.014576
     13 O3          6.2620    1.9410   -1.9540 o         1 MOL     -0.792006
     14 O4          7.6250    1.7910   -0.3600 o         1 MOL     -0.792006
     15 H4          9.9610    3.1860   -0.4830 hn        1 MOL      0.302765
     16 H5         10.6420    2.1350   -3.1760 h1        1 MOL      0.036878
     17 H6          8.6310    0.8540   -3.0730 hc        1 MOL      0.036648
     18 H7          8.3280    2.5250   -3.4970 hc        1 MOL      0.036648
     19 N2         10.5450    0.7860   -0.2790 n         1 MOL     -0.380616
     20 C7         10.8680   -0.4180    0.4860 c3        1 MOL      0.100495
     21 C8          9.8840   -1.5930    0.3240 c         1 MOL      0.511755
     22 O5         10.2230   -2.7510    0.2850 o         1 MOL     -0.563455
     23 C9         11.0210    0.1120    1.9600 c3        1 MOL     -0.521579
     24 H8         10.2020    1.5070    0.3430 hn        1 MOL      0.303707
     25 H9         11.8550   -0.7270    0.1380 h1        1 MOL      0.094422
     26 H10        12.0270    0.4980    2.0950 hc        1 MOL      0.144835
     27 H11        10.3180    0.8870    2.2780 hc        1 MOL      0.144835
     28 H12        10.9900   -0.6750    2.7200 hc        1 MOL      0.144835
     29 N3          8.6000   -1.2410    0.1060 n         1 MOL     -0.316625
     30 C10         7.4350   -2.1390   -0.3100 c3        1 MOL     -0.009173
     31 C11         6.4970   -1.4320   -1.3120 c         1 MOL      0.268593
     32 O6          5.5310   -0.8030   -0.9640 o         1 MOL     -0.437484
     33 C12         6.6720   -2.6830    0.8930 c3        1 MOL      0.108517
     34 C13         6.2040   -1.5740    1.8170 c         1 MOL      0.778318
     35 O7          5.5800   -1.9380    2.8480 o         1 MOL     -0.760354
     36 O8          6.4750   -0.3200    1.6390 o         1 MOL     -0.760354
     37 H13         8.4280   -0.2680    0.2940 hn        1 MOL      0.219628
     38 H14         7.9300   -2.9560   -0.8350 h1        1 MOL      0.080426
     39 H15         7.4070   -3.3290    1.3740 hc        1 MOL     -0.020485
     40 H16         5.7610   -3.1980    0.5700 hc        1 MOL     -0.020485
     41 N4          6.6950   -1.6230   -2.6230 n         1 MOL     -0.289289
     42 C14         5.8540   -1.0980   -3.7440 c3        1 MOL     -0.185595
     43 C15         4.3870   -1.3620   -3.5660 c         1 MOL      0.556812
     44 O9          3.4980   -0.5160   -3.6660 o         1 MOL     -0.531092
     45 H17         7.4130   -2.2860   -2.8540 hn        1 MOL      0.263082
     46 H18         6.0870   -1.6850   -4.6330 h1        1 MOL      0.119491
     47 H19         6.0880   -0.0330   -3.8700 h1        1 MOL      0.119491
     48 N5          4.0570   -2.6030   -3.1850 n         1 MOL     -0.491444
     49 C16         2.7450   -3.0290   -2.7280 c3        1 MOL      0.301688
     50 C17         2.6870   -3.0660   -1.1570 c         1 MOL      0.341285
     51 O10         3.5070   -3.4590   -0.3990 o         1 MOL     -0.410045
     52 C18         2.3370   -4.3580   -3.4520 c3        1 MOL     -0.313908
     53 C19         0.9030   -4.8000   -3.2850 c         1 MOL      0.649979
     54 N6          0.7520   -5.8190   -2.5040 n         1 MOL     -0.786876
     55 O11        -0.0220   -4.1620   -3.7370 o         1 MOL     -0.525134
     56 H20         4.8420   -3.2450   -3.0980 hn        1 MOL      0.266744
     57 H21         2.0000   -2.3130   -3.0490 h1        1 MOL      0.048126
     58 H22         3.0610   -5.1580   -3.2920 hc        1 MOL      0.069394
     59 H23         2.3230   -4.1430   -4.5160 hc        1 MOL      0.069394
     60 H24         1.5050   -6.3410   -2.0710 hn        1 MOL      0.370164
     61 H25        -0.1870   -6.1860   -2.4170 hn        1 MOL      0.370164
     62 N7          1.5170   -2.6340   -0.6800 n         1 MOL     -0.384034
     63 C20         1.2260   -2.1870    0.6630 c3        1 MOL     -0.013039
     64 C21         2.1280   -1.2180    1.3270 c         1 MOL      0.319729
     65 O12         2.9600   -0.5490    0.7900 o         1 MOL     -0.430446
     66 H26         0.7120   -2.4930   -1.2750 hn        1 MOL      0.325009
     67 H27         1.1770   -3.0760    1.2950 h1        1 MOL      0.082036
     68 H28         0.2480   -1.7140    0.6170 h1        1 MOL      0.082036
     69 N8          1.9610   -1.0980    2.6580 n         1 MOL     -0.002407
     70 C22         1.1820   -1.9830    3.5590 c3        1 MOL     -0.330921
     71 C23        -0.2910   -1.5940    3.6550 c         1 MOL      0.463168
     72 O13        -1.0500   -2.4420    4.1200 o         1 MOL     -0.545598
     73 C24         1.6730   -1.8010    4.9300 c3        1 MOL      0.207932
     74 C25         3.1280   -2.3000    5.0800 c3        1 MOL     -0.472194
     75 O14         1.7960   -0.4670    5.2900 oh        1 MOL     -0.684707
     76 H29         2.4700   -0.3370    3.0740 hn        1 MOL      0.201936
     77 H30         1.2890   -3.0350    3.2800 h1        1 MOL      0.185925
     78 H31         0.9840   -2.2440    5.6530 h1        1 MOL      0.080598
     79 H32         1.7690   -0.4000    6.2480 ho        1 MOL      0.445997
     80 H33         3.6890   -1.7880    4.2950 hc        1 MOL      0.135221
     81 H34         3.5490   -1.9320    6.0180 hc        1 MOL      0.135221
     82 H35         3.1550   -3.3710    4.8850 hc        1 MOL      0.135221
     83 N9         -0.7230   -0.3660    3.2670 n         1 MOL     -0.081149
     84 C26        -2.0660    0.1540    2.8930 c3        1 MOL      0.086350
     85 C27        -2.2510    0.2990    1.3520 c         1 MOL      0.285217
     86 O15        -1.4390    0.9760    0.6800 o         1 MOL     -0.510104
     87 C28        -2.3340    1.3770    3.7290 c3        1 MOL      0.057450
     88 C29        -2.4520    1.0670    5.2120 c3        1 MOL      0.000742
     89 C30        -3.6510    2.0370    3.3530 c3        1 MOL     -0.327338
     90 C31        -3.4030   -0.0870    5.6010 c3        1 MOL     -0.057478
     91 H36         0.1120    0.1650    3.0480 hn        1 MOL      0.085160
     92 H37        -2.7720   -0.6260    3.1930 h1        1 MOL      0.023429
     93 H38        -1.5390    2.1100    3.5920 hc        1 MOL      0.016558
     94 H39        -2.7150    1.9840    5.7440 hc        1 MOL     -0.021084
     95 H40        -1.4650    0.8280    5.5960 hc        1 MOL     -0.021084
     96 H41        -4.0360    2.6970    4.1180 hc        1 MOL      0.120925
     97 H42        -3.5900    2.4980    2.3700 hc        1 MOL      0.120925
     98 H43        -4.4410    1.2980    3.1690 hc        1 MOL      0.120925
     99 H44        -2.9780   -1.0920    5.5650 hc        1 MOL      0.014184
    100 H45        -3.7490   -0.0250    6.6380 hc        1 MOL      0.014184
    101 H46        -4.3670   -0.0160    5.1010 hc        1 MOL      0.014184
    102 N10        -3.3970   -0.1520    0.8030 n         1 MOL     -0.200423
    103 C32        -4.5400   -0.9120    1.2990 c3        1 MOL      0.017773
    104 C33        -5.8400   -0.5720    0.4270 c         1 MOL      0.472168
    105 O16        -5.7670    0.0930   -0.6380 o         1 MOL     -0.482976
    106 C34        -4.2920   -2.4250    1.0790 c3        1 MOL     -0.126736
    107 C35        -3.5170   -2.8330   -0.1920 c         1 MOL      0.709074
    108 O17        -4.0790   -3.5470   -1.0290 o         1 MOL     -0.707659
    109 O18        -2.3270   -2.4810   -0.3630 o         1 MOL     -0.707659
    110 H47        -3.3470   -0.0570   -0.2040 hn        1 MOL      0.260717
    111 H48        -4.7400   -0.7560    2.3570 h1        1 MOL      0.042083
    112 H49        -5.1850   -3.0460    1.1310 hc        1 MOL     -0.000849
    113 H50        -3.5790   -2.7750    1.8340 hc        1 MOL     -0.000849
    114 N11        -7.0130   -1.0720    0.8920 n         1 MOL     -0.422561
    115 C36        -8.3080   -1.1030    0.1390 c3        1 MOL      0.310046
    116 C37        -9.4370   -0.2060    0.8250 c         1 MOL      0.179814
    117 O19        -9.6390   -0.2970    2.0350 o         1 MOL     -0.475243
    118 C38        -8.7760   -2.5600   -0.0050 c3        1 MOL     -0.184930
    119 C39        -9.9240   -2.7210   -1.0010 ca        1 MOL      0.140682
    120 C40       -11.2770   -2.4360   -0.6180 ca        1 MOL     -0.268689
    121 C41        -9.6720   -3.1610   -2.3330 ca        1 MOL     -0.268689
    122 C42       -12.2290   -2.4650   -1.4960 ca        1 MOL      0.013356
    123 C43       -10.7070   -3.3350   -3.1900 ca        1 MOL      0.013356
    124 C44       -11.9770   -2.9620   -2.8180 ca        1 MOL     -0.235681
    125 H51        -7.0870   -1.4860    1.8130 hn        1 MOL      0.278482
    126 H52        -8.1220   -0.8420   -0.9040 h1        1 MOL      0.073498
    127 H53        -9.1250   -2.8680    0.9770 hc        1 MOL      0.054205
    128 H54        -7.9070   -3.1440   -0.3270 hc        1 MOL      0.054205
    129 H55       -11.4120   -2.1170    0.4020 ha        1 MOL      0.163005
    130 H56        -8.6670   -3.5050   -2.5380 ha        1 MOL      0.163005
    131 H57       -13.2370   -2.2990   -1.1540 ha        1 MOL      0.079022
    132 H58       -10.5330   -3.7760   -4.1670 ha        1 MOL      0.079022
    133 H59       -12.7960   -3.0390   -3.5070 ha        1 MOL      0.105865
    134 N12       -10.1640    0.6690    0.0920 n         1 MOL      0.038979
    135 C45       -10.2000    0.8090   -1.4120 c3        1 MOL      0.132422
    136 C46        -8.9340    1.4770   -1.9380 c         1 MOL      0.291668
    137 O20        -8.2780    0.9270   -2.8350 o         1 MOL     -0.512241
    138 C47       -11.4640    1.6380   -1.7870 c3        1 MOL      0.011035
    139 C48       -12.3430    1.3580   -0.5550 c3        1 MOL     -0.143846
    140 C49       -11.3660    1.2760    0.5940 c3        1 MOL     -0.033141
    141 H60       -10.2220   -0.1320   -1.9600 h1        1 MOL      0.057127
    142 H61       -11.2960    2.6960   -2.0320 hc        1 MOL      0.012608
    143 H62       -11.8810    1.1060   -2.6350 hc        1 MOL      0.012608
    144 H63       -12.9830    2.2290   -0.3830 hc        1 MOL      0.031014
    145 H64       -12.8110    0.3940   -0.7280 hc        1 MOL      0.031014
    146 H65       -10.9900    2.2470    0.9430 h1        1 MOL      0.056562
    147 H66       -11.7870    0.7490    1.4500 h1        1 MOL      0.056562
    148 N13        -8.5310    2.6160   -1.2880 n         1 MOL     -0.393941
    149 C50        -7.2390    3.4060   -1.5810 c3        1 MOL      0.312843
    150 C51        -7.3380    4.3900   -2.7520 c         1 MOL      0.352354
    151 O21        -7.8970    5.4480   -2.4980 o         1 MOL     -0.566726
    152 C52        -6.7050    4.1180   -0.3140 c3        1 MOL      0.037205
    153 C53        -6.4000    3.1510    0.8570 c3        1 MOL     -0.128308
    154 C54        -6.3720    3.8960    2.1690 c         1 MOL      0.699400
    155 O22        -6.8930    3.3600    3.1780 o         1 MOL     -0.739815
    156 O23        -5.8540    5.0570    2.2470 o         1 MOL     -0.739815
    157 H67        -9.2120    3.0780   -0.6970 hn        1 MOL      0.257393
    158 H68        -6.4680    2.6640   -1.7890 h1        1 MOL      0.063740
    159 H69        -7.3570    4.9250    0.0200 hc        1 MOL     -0.005078
    160 H70        -5.8340    4.6720   -0.6540 hc        1 MOL     -0.005078
    161 H71        -5.4430    2.6590    0.6700 hc        1 MOL     -0.044089
    162 H72        -7.1050    2.3280    0.8370 hc        1 MOL     -0.044089
    163 N14        -6.8570    4.2190   -3.9980 n         1 MOL     -0.308208
    164 C55        -6.0360    3.1290   -4.4930 c3        1 MOL     -0.150311
    165 H73        -5.3150    3.5160   -5.2130 h1        1 MOL      0.080465
    166 H74        -5.5060    2.6660   -3.6620 h1        1 MOL      0.080465
    167 H75        -6.6700    2.3870   -4.9790 h1        1 MOL      0.080465
    168 H76        -7.1910    4.8790   -4.6720 hn        1 MOL      0.259226
    169 Ca1         5.0600    1.4140    0.4440 Ca        1 MOL      1.716922
    170 O24         6.1520    2.7410    2.4980 oh        1 MOL     -0.773685
    171 O25         4.3990    0.4270    3.1330 oh        1 MOL     -0.773685
    172 H77         6.9240    2.3300    2.8880 ho        1 MOL      0.379813
    173 H78         4.8650   -0.4130    3.1050 ho        1 MOL      0.379813
    174 H79         5.5980    2.9590    3.2530 ho        1 MOL      0.379813
    175 H80         4.5840    0.7870    4.0020 ho        1 MOL      0.379813
    176 O26         3.3320    1.2340   -1.3960 oh        1 MOL     -0.773685
    177 H81         2.3840    1.3610   -1.3800 ho        1 MOL      0.379813
    178 H82         3.4890    0.6730   -2.1570 ho        1 MOL      0.379813
    179 O27         5.3500    4.1860   -0.0660 oh        1 MOL     -0.773685
    180 H83         6.0420    4.8460   -0.0640 ho        1 MOL      0.379813
    181 H84         4.7070    4.5120    0.5740 ho        1 MOL      0.379813
    182 O28         2.8760    2.4050    1.4240 oh        1 MOL     -0.773685
    183 H85         2.6240    2.2740    2.3330 ho        1 MOL      0.379813
    184 H86         2.1340    2.0980    0.9120 ho        1 MOL      0.379813
@<TRIPOS>BOND
     1    1    2 1   
     2    1    4 1   
     3    1    5 1   
     4    1    6 1   
     5    2    3 2   
     6    2    7 1   
     7    7    8 1   
     8    7   15 1   
     9    8    9 1   
    10    8   11 1   
    11    8   16 1   
    12    9   10 2   
    13    9   19 1   
    14   11   12 1   
    15   11   17 1   
    16   11   18 1   
    17   12   13 1   
    18   12   14 1   
    19   19   20 1   
    20   19   24 1   
    21   20   21 1   
    22   20   23 1   
    23   20   25 1   
    24   21   22 2   
    25   21   29 1   
    26   23   26 1   
    27   23   27 1   
    28   23   28 1   
    29   29   30 1   
    30   29   37 1   
    31   30   31 1   
    32   30   33 1   
    33   30   38 1   
    34   31   32 2   
    35   31   41 1   
    36   33   34 1   
    37   33   39 1   
    38   33   40 1   
    39   34   35 1   
    40   34   36 1   
    41   41   42 1   
    42   41   45 1   
    43   42   43 1   
    44   42   46 1   
    45   42   47 1   
    46   43   44 2   
    47   43   48 1   
    48   48   49 1   
    49   48   56 1   
    50   49   50 1   
    51   49   52 1   
    52   49   57 1   
    53   50   51 2   
    54   50   62 1   
    55   52   53 1   
    56   52   58 1   
    57   52   59 1   
    58   53   54 1   
    59   53   55 2   
    60   54   60 1   
    61   54   61 1   
    62   62   63 1   
    63   62   66 1   
    64   63   64 1   
    65   63   67 1   
    66   63   68 1   
    67   64   65 2   
    68   64   69 1   
    69   69   70 1   
    70   69   76 1   
    71   70   71 1   
    72   70   73 1   
    73   70   77 1   
    74   71   72 2   
    75   71   83 1   
    76   73   74 1   
    77   73   75 1   
    78   73   78 1   
    79   74   80 1   
    80   74   81 1   
    81   74   82 1   
    82   75   79 1   
    83   83   84 1   
    84   83   91 1   
    85   84   85 1   
    86   84   87 1   
    87   84   92 1   
    88   85   86 2   
    89   85  102 1   
    90   87   88 1   
    91   87   89 1   
    92   87   93 1   
    93   88   90 1   
    94   88   94 1   
    95   88   95 1   
    96   89   96 1   
    97   89   97 1   
    98   89   98 1   
    99   90   99 1   
   100   90  100 1   
   101   90  101 1   
   102  102  103 1   
   103  102  110 1   
   104  103  104 1   
   105  103  106 1   
   106  103  111 1   
   107  104  105 2   
   108  104  114 1   
   109  106  107 1   
   110  106  112 1   
   111  106  113 1   
   112  107  108 1   
   113  107  109 1   
   114  114  115 1   
   115  114  125 1   
   116  115  116 1   
   117  115  118 1   
   118  115  126 1   
   119  116  117 2   
   120  116  134 1   
   121  118  119 1   
   122  118  127 1   
   123  118  128 1   
   124  119  120 ar  
   125  119  121 ar  
   126  120  122 ar  
   127  120  129 1   
   128  121  123 ar  
   129  121  130 1   
   130  122  124 ar  
   131  122  131 1   
   132  123  124 ar  
   133  123  132 1   
   134  124  133 1   
   135  134  135 1   
   136  134  140 1   
   137  135  136 1   
   138  135  138 1   
   139  135  141 1   
   140  136  137 2   
   141  136  148 1   
   142  138  139 1   
   143  138  142 1   
   144  138  143 1   
   145  139  140 1   
   146  139  144 1   
   147  139  145 1   
   148  140  146 1   
   149  140  147 1   
   150  148  149 1   
   151  148  157 1   
   152  149  150 1   
   153  149  152 1   
   154  149  158 1   
   155  150  151 2   
   156  150  163 1   
   157  152  153 1   
   158  152  159 1   
   159  152  160 1   
   160  153  154 1   
   161  153  161 1   
   162  153  162 1   
   163  154  155 1   
   164  154  156 1   
   165  163  164 1   
   166  163  168 1   
   167  164  165 1   
   168  164  166 1   
   169  164  167 1   
   170  170  172 1   
   171  170  174 1   
   172  171  173 1   
   173  171  175 1   
   174  176  177 1   
   175  176  178 1   
   176  179  180 1   
   177  179  181 1   
   178  182  183 1   
   179  182  184 1   
@<TRIPOS>SUBSTRUCTURE
     1 MOL         1 TEMP              0 ****  ****    0 ROOT
