@<TRIPOS>MOLECULE
MOL
  182   178     1     0     0
SMALL
resp


@<TRIPOS>ATOM
      1 C1          0.4080   -3.4820    6.6480 c3        1 MOL     -0.396547
      2 C2          0.5390   -3.1010    5.1720 c         1 MOL      0.819474
      3 O1         -0.3470   -3.2230    4.3940 o         1 MOL     -0.600294
      4 H1          0.7250   -4.5150    6.7870 hc        1 MOL      0.110894
      5 H2          1.0370   -2.8260    7.2500 hc        1 MOL      0.110894
      6 H3         -0.6320   -3.3760    6.9600 hc        1 MOL      0.110894
      7 N1          1.7080   -2.8120    4.7080 n         1 MOL     -0.646949
      8 C3          2.1190   -2.7760    3.3280 c3        1 MOL     -0.029832
      9 C4          2.3650   -4.1950    2.7200 c         1 MOL      0.601684
     10 O2          2.8230   -5.1600    3.3090 o         1 MOL     -0.542301
     11 C5          3.3060   -1.7490    3.2580 c3        1 MOL     -0.034281
     12 C6          3.4400   -1.0310    1.8990 c         1 MOL      0.123171
     13 O3          3.8140    0.1360    1.7870 o         1 MOL     -0.548959
     14 O4          3.0990   -1.6700    0.9230 o         1 MOL     -0.548959
     15 H4          2.3810   -2.7110    5.4500 hn        1 MOL      0.303393
     16 H5          1.3500   -2.2550    2.7450 h1        1 MOL      0.232799
     17 H6          4.2240   -2.1900    3.6360 hc        1 MOL      0.100671
     18 H7          3.1090   -0.9570    3.9950 hc        1 MOL      0.100671
     19 N2          2.1910   -4.1760    1.4100 n         1 MOL     -0.446964
     20 C7          2.4700   -5.2710    0.4360 c3        1 MOL      0.002772
     21 C8          3.9480   -5.2430   -0.0590 c         1 MOL      0.454677
     22 O5          4.5670   -6.2300   -0.3720 o         1 MOL     -0.534138
     23 C9          1.4430   -5.1940   -0.7510 c3        1 MOL     -0.024990
     24 C10         1.5150   -6.3180   -1.8210 c3        1 MOL      0.300337
     25 C11         2.5010   -6.1460   -2.9800 c3        1 MOL     -0.089024
     26 C12         2.3410   -7.3100   -4.0380 c3        1 MOL     -0.092074
     27 N3          0.9720   -7.3640   -4.6610 n4        1 MOL     -0.242469
     28 H8          1.9140   -3.3120    0.9700 hn        1 MOL      0.335588
     29 H9          2.3210   -6.2130    0.9520 h1        1 MOL      0.106166
     30 H10         1.6180   -4.2000   -1.1550 hc        1 MOL     -0.047571
     31 H11         0.4730   -5.3090   -0.2670 hc        1 MOL     -0.047571
     32 H12         0.5760   -6.3410   -2.3840 hc        1 MOL     -0.059540
     33 H13         1.7150   -7.2840   -1.3530 hc        1 MOL     -0.059540
     34 H14         3.5350   -6.1370   -2.6280 hc        1 MOL      0.042418
     35 H15         2.2370   -5.2390   -3.5100 hc        1 MOL      0.042418
     36 H16         2.4280   -8.2540   -3.5000 hx        1 MOL      0.119737
     37 H17         3.1750   -7.2690   -4.7320 hx        1 MOL      0.119737
     38 H18         1.0520   -7.8000   -5.5690 hn        1 MOL      0.246164
     39 H19         0.3080   -7.8470   -4.0720 hn        1 MOL      0.246164
     40 H20         0.5540   -6.4700   -4.9030 hn        1 MOL      0.246164
     41 N4          4.4220   -4.0040   -0.2860 n         1 MOL     -0.108706
     42 C13         5.7510   -3.6980   -0.9200 c3        1 MOL     -0.205157
     43 C14         6.6580   -2.5810   -0.3540 c         1 MOL      0.459870
     44 O6          7.7560   -2.2010   -0.8190 o         1 MOL     -0.511629
     45 C15         5.3340   -3.2380   -2.3260 c3        1 MOL     -0.060513
     46 C16         4.1420   -2.2000   -2.3570 c         1 MOL      0.698826
     47 O7          3.0620   -2.3760   -2.9120 o         1 MOL     -0.699520
     48 O8          4.3880   -1.0200   -1.9110 o         1 MOL     -0.699520
     49 H21         4.0130   -3.2240    0.2070 hn        1 MOL      0.098193
     50 H22         6.3770   -4.5880   -0.9380 h1        1 MOL      0.157992
     51 H23         4.9420   -4.0050   -2.9930 hc        1 MOL      0.037180
     52 H24         6.2180   -2.8290   -2.8040 hc        1 MOL      0.037180
     53 N5          6.1250   -1.9610    0.7080 n         1 MOL     -0.137832
     54 C17         6.7350   -0.9090    1.5900 c3        1 MOL     -0.200492
     55 C18         7.0560    0.4330    0.8770 c         1 MOL      0.537410
     56 O9          7.3860    1.4990    1.5780 o         1 MOL     -0.531391
     57 H25         5.1780   -2.1810    1.0000 hn        1 MOL      0.131522
     58 H26         7.6520   -1.3120    2.0200 h1        1 MOL      0.127619
     59 H27         6.0130   -0.6960    2.3830 h1        1 MOL      0.127619
     60 N6          6.8330    0.4900   -0.4590 n         1 MOL     -0.331671
     61 C19         6.9300    1.7320   -1.2110 c3        1 MOL     -0.005647
     62 C20         5.6370    2.6180   -1.1590 c         1 MOL      0.418525
     63 O10         4.5320    2.0900   -0.9790 o         1 MOL     -0.371377
     64 C21         7.1060    1.4440   -2.7690 c3        1 MOL     -0.166566
     65 C22         8.4720    0.8850   -3.1430 c         1 MOL      0.693787
     66 N7          9.0310   -0.0570   -2.4590 n         1 MOL     -0.744016
     67 O11         9.0270    1.2000   -4.1750 o         1 MOL     -0.609900
     68 H28         6.2570   -0.2550   -0.8280 hn        1 MOL      0.205121
     69 H29         7.7710    2.3430   -0.8750 h1        1 MOL      0.069268
     70 H30         7.0330    2.4140   -3.2710 hc        1 MOL      0.038045
     71 H31         6.3220    0.7520   -3.0560 hc        1 MOL      0.038045
     72 H32         8.4970   -0.7070   -1.8940 hn        1 MOL      0.347899
     73 H33         9.8650   -0.3490   -2.9350 hn        1 MOL      0.347899
     74 N8          5.8610    3.9260   -1.2640 n         1 MOL     -0.252904
     75 C23         4.8360    4.9090   -1.2440 c3        1 MOL     -0.372896
     76 C24         3.9360    4.9430    0.0060 c         1 MOL      0.588985
     77 O12         4.3680    4.6140    1.1540 o         1 MOL     -0.469851
     78 H34         6.8180    4.2380   -1.3750 hn        1 MOL      0.311266
     79 H35         4.2570    4.9050   -2.1770 h1        1 MOL      0.153558
     80 H36         5.3730    5.8540   -1.1690 h1        1 MOL      0.153558
     81 N9          2.6380    5.2260   -0.2070 n         1 MOL     -0.530733
     82 C25         1.4250    4.8760    0.6090 c3        1 MOL      0.024917
     83 C26         1.3100    3.3830    0.9260 c         1 MOL      0.659183
     84 O13         2.0710    2.5480    0.3950 o         1 MOL     -0.574716
     85 C27         0.2230    5.3530   -0.2010 c3        1 MOL     -0.184114
     86 C28         0.1320    6.8660   -0.3510 ca        1 MOL      0.110737
     87 C29         0.4550    7.7460    0.7250 ca        1 MOL     -0.182278
     88 C30        -0.2950    7.3710   -1.6020 ca        1 MOL     -0.182278
     89 C31         0.2870    9.1500    0.5300 ca        1 MOL     -0.234965
     90 C32        -0.3590    8.7720   -1.7960 ca        1 MOL     -0.234965
     91 C33        -0.0460    9.6440   -0.7550 ca        1 MOL      0.314872
     92 O14        -0.0850   11.0100   -0.9420 oh        1 MOL     -0.474802
     93 H37         2.4340    5.5260   -1.1490 hn        1 MOL      0.291572
     94 H38         1.4940    5.3080    1.6160 h1        1 MOL      0.093041
     95 H39        -0.6510    5.0310    0.3540 hc        1 MOL      0.063850
     96 H40         0.2120    4.8100   -1.1380 hc        1 MOL      0.063850
     97 H41         0.6990    7.3780    1.7100 ha        1 MOL      0.145543
     98 H42        -0.4590    6.6920   -2.4190 ha        1 MOL      0.145543
     99 H43         0.4390    9.9260    1.2590 ha        1 MOL      0.155674
    100 H44        -0.5040    9.0980   -2.8140 ha        1 MOL      0.155674
    101 H45         0.4230   11.4170   -0.2390 ho        1 MOL      0.358542
    102 N10         0.3890    3.0710    1.8440 n         1 MOL     -0.611267
    103 C34        -0.1240    1.7870    2.5190 c3        1 MOL      0.100053
    104 C35        -0.3710    0.6520    1.5180 c         1 MOL      0.122801
    105 O15         0.5540    0.2070    0.8090 o         1 MOL     -0.182621
    106 C36         0.8550    1.4950    3.6900 c3        1 MOL      0.176983
    107 C37         0.3550    0.3040    4.5060 c3        1 MOL     -0.270322
    108 C38         1.0080    2.7390    4.5680 c3        1 MOL     -0.334322
    109 C39        -0.9130    0.4760    5.3380 c3        1 MOL     -0.149480
    110 H46        -0.1520    3.8110    2.2640 hn        1 MOL      0.313234
    111 H47        -1.1060    1.9790    2.9480 h1        1 MOL      0.068844
    112 H48         1.8580    1.3600    3.2890 hc        1 MOL      0.099632
    113 H49         1.1280   -0.0800    5.1740 hc        1 MOL      0.053509
    114 H50         0.1790   -0.5740    3.8740 hc        1 MOL      0.053509
    115 H51         1.5310    2.4680    5.4830 hc        1 MOL      0.096780
    116 H52         1.6910    3.4950    4.1530 hc        1 MOL      0.096780
    117 H53         0.1020    3.2710    4.8440 hc        1 MOL      0.096780
    118 H54        -1.8620    0.7040    4.8570 hc        1 MOL      0.050289
    119 H55        -1.1790   -0.4690    5.8190 hc        1 MOL      0.050289
    120 H56        -0.8470    1.3480    5.9790 hc        1 MOL      0.050289
    121 N11        -1.5720    0.1280    1.4280 n         1 MOL     -0.022765
    122 C40        -1.9450   -0.9380    0.6290 c3        1 MOL     -0.298772
    123 C41        -3.3920   -1.1300    0.1590 c         1 MOL      0.679643
    124 O16        -3.7850   -2.2600   -0.0600 o         1 MOL     -0.521197
    125 C42        -1.3890   -2.2220    1.3000 c3        1 MOL      0.373671
    126 O17        -1.9360   -2.3470    2.5650 oh        1 MOL     -0.663786
    127 H57        -2.3470    0.6690    1.7960 hn        1 MOL      0.198574
    128 H58        -1.4550   -0.7890   -0.3390 h1        1 MOL      0.065108
    129 H59        -0.3290   -1.9950    1.4300 h1        1 MOL     -0.030664
    130 H60        -1.6050   -3.0960    0.6970 h1        1 MOL     -0.030664
    131 H61        -1.2730   -2.2830    3.2520 ho        1 MOL      0.428512
    132 N12        -4.1810   -0.0450   -0.0930 n         1 MOL     -0.588680
    133 C43        -5.5770    0.0210   -0.3680 c3        1 MOL      0.224426
    134 C44        -5.7820    0.5250   -1.8230 c         1 MOL      0.533416
    135 O18        -4.9970    1.2580   -2.4780 o         1 MOL     -0.564285
    136 C45        -6.2200    0.9490    0.6810 c3        1 MOL     -0.294670
    137 H62        -3.8550    0.9050    0.0520 hn        1 MOL      0.265996
    138 H63        -6.0160   -0.9650   -0.2660 h1        1 MOL      0.098586
    139 H64        -5.9100    1.9670    0.4650 hc        1 MOL      0.091497
    140 H65        -7.2950    0.8740    0.5670 hc        1 MOL      0.091497
    141 H66        -5.9880    0.7010    1.7260 hc        1 MOL      0.091497
    142 N13        -6.8870    0.1030   -2.4490 n         1 MOL     -0.560199
    143 C46        -7.9790   -0.6600   -1.7730 c3        1 MOL      0.091297
    144 C47        -9.2760   -0.1860   -2.4460 c         1 MOL      0.477916
    145 O19        -9.2860    0.0790   -3.6210 o         1 MOL     -0.533457
    146 C48        -7.7630   -2.1900   -2.0660 c3        1 MOL     -0.251019
    147 H67        -6.9940    0.1510   -3.4450 hn        1 MOL      0.362776
    148 H68        -8.0930   -0.5400   -0.6990 h1        1 MOL      0.060406
    149 H69        -6.7590   -2.5180   -1.7770 hc        1 MOL      0.088922
    150 H70        -8.4370   -2.7160   -1.3970 hc        1 MOL      0.088922
    151 H71        -7.9300   -2.4450   -3.1140 hc        1 MOL      0.088922
    152 N14       -10.3870   -0.0100   -1.7120 n         1 MOL     -0.371030
    153 C49       -10.6060   -0.3780   -0.2520 c3        1 MOL     -0.241694
    154 C50       -10.1890    0.7580    0.6760 c         1 MOL      0.387973
    155 O20        -9.9870    0.3980    1.8360 o         1 MOL     -0.501410
    156 C51       -12.1560   -0.6630   -0.1260 c3        1 MOL      0.170462
    157 C52       -12.5860   -1.8500   -1.0050 c3        1 MOL     -0.174550
    158 C53       -14.0470   -2.2700   -0.8200 c         1 MOL      0.639865
    159 O21       -14.9790   -1.8220   -1.5580 o         1 MOL     -0.638782
    160 O22       -14.2540   -2.9440    0.2130 o         1 MOL     -0.638782
    161 H72       -11.2190    0.3220   -2.1780 hn        1 MOL      0.304044
    162 H73       -10.0430   -1.2810   -0.0070 h1        1 MOL      0.180804
    163 H74       -12.7260    0.2220   -0.3940 hc        1 MOL      0.022736
    164 H75       -12.3880   -0.9400    0.9010 hc        1 MOL      0.022736
    165 H76       -11.9820   -2.7190   -0.7370 hc        1 MOL      0.012573
    166 H77       -12.4050   -1.6860   -2.0590 hc        1 MOL      0.012573
    167 N15        -9.9520    1.9880    0.2180 n         1 MOL     -0.214660
    168 C54        -9.4330    3.0970    1.0100 c3        1 MOL     -0.156196
    169 H78       -10.0630    3.9740    0.8630 h1        1 MOL      0.086764
    170 H79        -9.4330    2.8220    2.0650 h1        1 MOL      0.086764
    171 H80        -8.4150    3.3240    0.6940 h1        1 MOL      0.086764
    172 H81       -10.2350    2.1480   -0.7380 hn        1 MOL      0.221691
    173 Ca1         2.6070    0.3460   -0.7380 Ca        1 MOL      1.676793
    174 O23         3.1830    0.8610   -3.4160 oh        1 MOL     -0.864367
    175 H82         3.6370    1.4430   -4.0280 ho        1 MOL      0.420945
    176 H83         3.4110   -0.0250   -3.7150 ho        1 MOL      0.420945
    177 O24         1.0540   -1.4620   -1.5590 oh        1 MOL     -0.864367
    178 H84         0.2290   -1.9450   -1.6480 ho        1 MOL      0.420945
    179 H85         1.6510   -1.9090   -2.1610 ho        1 MOL      0.420945
    180 O25         0.6660    1.5620   -2.1220 oh        1 MOL     -0.864367
    181 H86         0.8840    2.0820   -2.8900 ho        1 MOL      0.420945
    182 H87        -0.2860    1.4680   -2.1650 ho        1 MOL      0.420945
@<TRIPOS>BOND
     1    1    2 1   
     2    1    4 1   
     3    1    5 1   
     4    1    6 1   
     5    2    3 2   
     6    2    7 1   
     7    7    8 1   
     8    7   15 1   
     9    8    9 1   
    10    8   11 1   
    11    8   16 1   
    12    9   10 2   
    13    9   19 1   
    14   11   12 1   
    15   11   17 1   
    16   11   18 1   
    17   12   13 1   
    18   12   14 1   
    19   19   20 1   
    20   19   28 1   
    21   20   21 1   
    22   20   23 1   
    23   20   29 1   
    24   21   22 2   
    25   21   41 1   
    26   23   24 1   
    27   23   30 1   
    28   23   31 1   
    29   24   25 1   
    30   24   32 1   
    31   24   33 1   
    32   25   26 1   
    33   25   34 1   
    34   25   35 1   
    35   26   27 1   
    36   26   36 1   
    37   26   37 1   
    38   27   38 1   
    39   27   39 1   
    40   27   40 1   
    41   41   42 1   
    42   41   49 1   
    43   42   43 1   
    44   42   45 1   
    45   42   50 1   
    46   43   44 2   
    47   43   53 1   
    48   45   46 1   
    49   45   51 1   
    50   45   52 1   
    51   46   47 1   
    52   46   48 1   
    53   53   54 1   
    54   53   57 1   
    55   54   55 1   
    56   54   58 1   
    57   54   59 1   
    58   55   56 2   
    59   55   60 1   
    60   60   61 1   
    61   60   68 1   
    62   61   62 1   
    63   61   64 1   
    64   61   69 1   
    65   62   63 2   
    66   62   74 1   
    67   64   65 1   
    68   64   70 1   
    69   64   71 1   
    70   65   66 1   
    71   65   67 2   
    72   66   72 1   
    73   66   73 1   
    74   74   75 1   
    75   74   78 1   
    76   75   76 1   
    77   75   79 1   
    78   75   80 1   
    79   76   77 2   
    80   76   81 1   
    81   81   82 1   
    82   81   93 1   
    83   82   83 1   
    84   82   85 1   
    85   82   94 1   
    86   83   84 2   
    87   83  102 1   
    88   85   86 1   
    89   85   95 1   
    90   85   96 1   
    91   86   87 ar  
    92   86   88 ar  
    93   87   89 ar  
    94   87   97 1   
    95   88   90 ar  
    96   88   98 1   
    97   89   91 ar  
    98   89   99 1   
    99   90   91 ar  
   100   90  100 1   
   101   91   92 1   
   102   92  101 1   
   103  102  103 1   
   104  102  110 1   
   105  103  104 1   
   106  103  106 1   
   107  103  111 1   
   108  104  105 2   
   109  104  121 1   
   110  106  107 1   
   111  106  108 1   
   112  106  112 1   
   113  107  109 1   
   114  107  113 1   
   115  107  114 1   
   116  108  115 1   
   117  108  116 1   
   118  108  117 1   
   119  109  118 1   
   120  109  119 1   
   121  109  120 1   
   122  121  122 1   
   123  121  127 1   
   124  122  123 1   
   125  122  125 1   
   126  122  128 1   
   127  123  124 2   
   128  123  132 1   
   129  125  126 1   
   130  125  129 1   
   131  125  130 1   
   132  126  131 1   
   133  132  133 1   
   134  132  137 1   
   135  133  134 1   
   136  133  136 1   
   137  133  138 1   
   138  134  135 2   
   139  134  142 1   
   140  136  139 1   
   141  136  140 1   
   142  136  141 1   
   143  142  143 1   
   144  142  147 1   
   145  143  144 1   
   146  143  146 1   
   147  143  148 1   
   148  144  145 2   
   149  144  152 1   
   150  146  149 1   
   151  146  150 1   
   152  146  151 1   
   153  152  153 1   
   154  152  161 1   
   155  153  154 1   
   156  153  156 1   
   157  153  162 1   
   158  154  155 2   
   159  154  167 1   
   160  156  157 1   
   161  156  163 1   
   162  156  164 1   
   163  157  158 1   
   164  157  165 1   
   165  157  166 1   
   166  158  159 1   
   167  158  160 1   
   168  167  168 1   
   169  167  172 1   
   170  168  169 1   
   171  168  170 1   
   172  168  171 1   
   173  174  175 1   
   174  174  176 1   
   175  177  178 1   
   176  177  179 1   
   177  180  181 1   
   178  180  182 1   
@<TRIPOS>SUBSTRUCTURE
     1 MOL         1 TEMP              0 ****  ****    0 ROOT
