@<TRIPOS>MOLECULE
MOL
  175   173     1     0     0
SMALL
resp


@<TRIPOS>ATOM
      1 C1         -6.4400    8.2590    1.4060 c3        1 MOL     -0.413419
      2 C2         -7.4380    7.3580    0.6330 c         1 MOL      0.730391
      3 O1         -7.6250    7.6370   -0.5420 o         1 MOL     -0.585481
      4 H1         -6.3840    9.2340    0.9230 hc        1 MOL      0.100103
      5 H2         -6.7810    8.3820    2.4330 hc        1 MOL      0.100103
      6 H3         -5.4540    7.7940    1.4030 hc        1 MOL      0.100103
      7 N1         -8.0060    6.2750    1.1970 n         1 MOL     -0.699254
      8 C3         -8.8000    5.2690    0.4620 c3        1 MOL      0.394112
      9 C4         -7.8920    4.1230   -0.0340 c         1 MOL      0.572163
     10 O2         -8.2380    2.9680   -0.1000 o         1 MOL     -0.531455
     11 C5         -9.9690    4.7420    1.3590 c3        1 MOL     -0.399175
     12 C6        -11.1110    4.2430    0.4920 c         1 MOL      0.727982
     13 O3        -11.6770    4.9400   -0.3550 o         1 MOL     -0.721430
     14 O4        -11.4910    3.0260    0.6390 o         1 MOL     -0.721430
     15 H4         -7.9270    6.1080    2.1890 hn        1 MOL      0.324726
     16 H5         -9.2140    5.7360   -0.4310 h1        1 MOL      0.010626
     17 H6        -10.3140    5.5120    2.0410 hc        1 MOL      0.065967
     18 H7         -9.5590    3.9660    1.9930 hc        1 MOL      0.065967
     19 N2         -6.6080    4.4210   -0.3210 n         1 MOL     -0.680901
     20 C7         -5.6730    3.4240   -0.8140 c3        1 MOL      0.343916
     21 C8         -4.9570    2.5670    0.2740 c         1 MOL      0.684516
     22 O5         -4.5780    3.1240    1.2600 o         1 MOL     -0.579260
     23 C9         -4.7030    4.1920   -1.7310 c3        1 MOL     -0.353348
     24 H8         -6.2260    5.3470   -0.1650 hn        1 MOL      0.321781
     25 H9         -6.2540    2.7080   -1.3940 h1        1 MOL      0.046899
     26 H10        -4.0140    3.4440   -2.1220 hc        1 MOL      0.092584
     27 H11        -5.2380    4.6080   -2.5820 hc        1 MOL      0.092584
     28 H12        -4.1670    4.9390   -1.1530 hc        1 MOL      0.092584
     29 N3         -4.8550    1.2210    0.1440 n         1 MOL     -0.576462
     30 C10        -5.4290    0.3120   -0.8150 c3        1 MOL     -0.040384
     31 C11        -5.6400   -1.1010   -0.1940 c         1 MOL      0.655607
     32 O6         -4.7710   -1.5830    0.6150 o         1 MOL     -0.573646
     33 C12        -4.6370    0.1780   -2.0660 c3        1 MOL     -0.163443
     34 C13        -3.1980   -0.2640   -1.9250 c         1 MOL      0.720814
     35 O7         -2.9010   -1.4090   -2.2490 o         1 MOL     -0.734516
     36 O8         -2.3150    0.5180   -1.3750 o         1 MOL     -0.734516
     37 H13        -4.6430    0.7390    1.0050 hn        1 MOL      0.298409
     38 H14        -6.4370    0.6760   -1.0430 h1        1 MOL      0.054856
     39 H15        -4.6770    1.1280   -2.5940 hc        1 MOL      0.039364
     40 H16        -5.1140   -0.5200   -2.7570 hc        1 MOL      0.039364
     41 N4         -6.7030   -1.8250   -0.6660 n         1 MOL     -0.480374
     42 C14        -7.1130   -3.1920   -0.3260 c3        1 MOL      0.044846
     43 C15        -6.8960   -4.1490   -1.5690 c         1 MOL      0.493703
     44 O9         -7.8410   -4.3430   -2.3670 o         1 MOL     -0.553417
     45 H17        -7.2750   -1.4900   -1.4240 hn        1 MOL      0.329284
     46 H18        -8.1840   -3.1580   -0.1090 h1        1 MOL      0.062262
     47 H19        -6.7020   -3.5770    0.5990 h1        1 MOL      0.062262
     48 N5         -5.7890   -4.8400   -1.6950 n         1 MOL     -0.430876
     49 C16        -4.4810   -4.4730   -1.0350 c3        1 MOL     -0.017369
     50 C17        -4.2560   -5.0980    0.3560 c         1 MOL      0.461960
     51 O10        -4.2200   -6.3280    0.4900 o         1 MOL     -0.536176
     52 C18        -3.3730   -4.8250   -2.0750 c3        1 MOL      0.068930
     53 C19        -1.9500   -4.4050   -1.7240 c         1 MOL      0.506841
     54 N6         -0.9940   -4.8120   -2.4270 n         1 MOL     -0.562177
     55 O11        -1.7600   -3.6270   -0.8180 o         1 MOL     -0.540965
     56 H20        -5.6500   -5.4680   -2.4760 hn        1 MOL      0.304445
     57 H21        -4.4160   -3.3930   -0.9390 h1        1 MOL      0.089439
     58 H22        -3.5650   -4.3840   -3.0530 hc        1 MOL      0.002014
     59 H23        -3.3660   -5.8890   -2.3170 hc        1 MOL      0.002014
     60 H24        -1.2390   -5.3020   -3.2730 hn        1 MOL      0.305755
     61 H25        -0.0950   -4.3600   -2.3210 hn        1 MOL      0.305755
     62 N7         -4.0950   -4.2560    1.3850 n         1 MOL     -0.146819
     63 C20        -3.7330   -4.6680    2.7310 c3        1 MOL     -0.425593
     64 C21        -2.2350   -5.1060    2.8100 c         1 MOL      0.540661
     65 O12        -1.9240   -5.8810    3.7530 o         1 MOL     -0.542082
     66 H26        -3.9310   -3.2930    1.1650 hn        1 MOL      0.224896
     67 H27        -4.2840   -5.5930    2.8850 h1        1 MOL      0.178057
     68 H28        -3.9390   -3.8770    3.4500 h1        1 MOL      0.178057
     69 N8         -1.3830   -4.6750    1.8520 n         1 MOL     -0.175547
     70 C22         0.0950   -4.9850    1.9160 c3        1 MOL     -0.176079
     71 C23         0.9500   -3.7660    1.6600 c         1 MOL      0.524358
     72 O13         0.4780   -2.7770    1.1130 o         1 MOL     -0.596280
     73 C24         0.4990   -6.2670    1.2170 c3        1 MOL      0.494878
     74 C25        -0.0390   -7.4250    2.0010 c3        1 MOL     -0.546932
     75 O14        -0.0420   -6.4610   -0.0520 oh        1 MOL     -0.562151
     76 H29        -1.7060   -4.1180    1.0750 hn        1 MOL      0.161810
     77 H30         0.3050   -5.2430    2.9560 h1        1 MOL      0.072240
     78 H31         1.5770   -6.2390    1.0600 h1        1 MOL      0.005478
     79 H32        -0.7740   -5.8310   -0.0280 ho        1 MOL      0.294316
     80 H33        -1.1210   -7.4600    1.9260 hc        1 MOL      0.130219
     81 H34         0.3940   -8.3570    1.6320 hc        1 MOL      0.130219
     82 H35         0.2770   -7.3210    3.0400 hc        1 MOL      0.130219
     83 N9          2.1970   -3.8050    2.1260 n         1 MOL     -0.308231
     84 C26         3.1780   -2.7680    1.9370 c3        1 MOL      0.004567
     85 C27         3.8780   -3.0610    0.6550 c         1 MOL      0.400578
     86 O15         4.6030   -4.0230    0.5830 o         1 MOL     -0.566869
     87 C28         4.1130   -2.6250    3.1550 c3        1 MOL      0.235730
     88 C29         5.3740   -1.7670    3.0370 c3        1 MOL     -0.223645
     89 C30         3.3670   -2.0790    4.4390 c3        1 MOL     -0.530462
     90 C31         5.0190   -0.3400    2.5390 c3        1 MOL     -0.128457
     91 H36         2.4870   -4.7060    2.4810 hn        1 MOL      0.220649
     92 H37         2.6490   -1.8110    1.8980 h1        1 MOL      0.123564
     93 H38         4.4160   -3.6250    3.4530 hc        1 MOL     -0.020268
     94 H39         6.0610   -2.2120    2.3080 hc        1 MOL      0.070980
     95 H40         5.8530   -1.7390    4.0140 hc        1 MOL      0.070980
     96 H41         2.7780   -1.1910    4.2170 hc        1 MOL      0.134671
     97 H42         2.6470   -2.8510    4.7080 hc        1 MOL      0.134671
     98 H43         4.0510   -1.9030    5.2670 hc        1 MOL      0.134671
     99 H44         4.3080    0.0770    3.2500 hc        1 MOL      0.030231
    100 H45         5.9360    0.2300    2.4060 hc        1 MOL      0.030231
    101 H46         4.5730   -0.4290    1.5510 hc        1 MOL      0.030231
    102 N10         3.7820   -2.1720   -0.3290 n         1 MOL     -0.037719
    103 C32         4.3950   -2.1970   -1.7070 c3        1 MOL     -0.031416
    104 C33         5.4420   -1.1390   -2.0780 c         1 MOL      0.593733
    105 O16         6.1410   -1.1930   -3.0950 o         1 MOL     -0.523901
    106 C34         3.2920   -2.2280   -2.7820 c3        1 MOL     -0.133068
    107 C35         2.1900   -3.2610   -2.5820 c         1 MOL      0.682617
    108 O17         2.1870   -4.3290   -3.2360 o         1 MOL     -0.674020
    109 O18         1.1890   -3.0450   -1.8290 o         1 MOL     -0.674020
    110 H47         3.2240   -1.3530   -0.1210 hn        1 MOL      0.048111
    111 H48         4.8490   -3.1790   -1.7630 h1        1 MOL      0.086729
    112 H49         3.8040   -2.3880   -3.7360 hc        1 MOL      0.008736
    113 H50         2.7580   -1.2740   -2.7910 hc        1 MOL      0.008736
    114 N11         5.7520   -0.2200   -1.0820 n         1 MOL     -0.805883
    115 C36         7.0380    0.5170   -0.9540 c3        1 MOL      0.464271
    116 C37         6.7300    1.9180   -0.4260 c         1 MOL      0.386682
    117 O19         6.0180    2.0490    0.5750 o         1 MOL     -0.540510
    118 C38         8.0520   -0.1760    0.0010 c3        1 MOL     -0.220116
    119 C39         9.2950    0.6460    0.2320 ca        1 MOL      0.073995
    120 C40         9.4770    1.3760    1.4490 ca        1 MOL     -0.145261
    121 C41        10.2070    0.7790   -0.8150 ca        1 MOL     -0.145261
    122 C42        10.5690    2.2450    1.6060 ca        1 MOL     -0.146467
    123 C43        11.3730    1.5910   -0.6720 ca        1 MOL     -0.146467
    124 C44        11.5300    2.3260    0.5660 ca        1 MOL     -0.092669
    125 H51         5.0170   -0.0330   -0.4070 hn        1 MOL      0.533732
    126 H52         7.4650    0.5650   -1.9610 h1        1 MOL     -0.005095
    127 H53         8.3630   -1.1090   -0.4770 hc        1 MOL      0.073594
    128 H54         7.6620   -0.5240    0.9540 hc        1 MOL      0.073594
    129 H55         8.6960    1.3240    2.1900 ha        1 MOL      0.126508
    130 H56         9.9690    0.3490   -1.7770 ha        1 MOL      0.126508
    131 H57        10.6960    2.8610    2.4840 ha        1 MOL      0.119856
    132 H58        12.0920    1.7280   -1.4740 ha        1 MOL      0.119856
    133 H59        12.3800    2.9980    0.5550 ha        1 MOL      0.092597
    134 N12         7.1460    3.0570   -1.1300 n         1 MOL     -0.125173
    135 C45         6.9900    4.4200   -0.6510 c3        1 MOL     -0.001184
    136 C46         5.5290    4.9370   -0.4050 c         1 MOL      0.464301
    137 O20         5.3240    6.1250   -0.1450 o         1 MOL     -0.556513
    138 C47         7.6750    5.3730   -1.7290 c3        1 MOL     -0.297864
    139 C48         8.4690    4.3560   -2.5340 c3        1 MOL      0.426415
    140 C49         7.8790    2.9850   -2.3820 c3        1 MOL     -0.284329
    141 H60         7.5120    4.4420    0.3020 h1        1 MOL      0.085730
    142 H61         6.9170    5.8430   -2.3560 hc        1 MOL      0.094463
    143 H62         8.3240    6.1150   -1.2660 hc        1 MOL      0.094463
    144 H63         8.6930    4.6610   -3.5540 hc        1 MOL     -0.074074
    145 H64         9.4660    4.4060   -2.0910 hc        1 MOL     -0.074074
    146 H65         7.1890    2.8030   -3.2130 h1        1 MOL      0.079917
    147 H66         8.7470    2.3110   -2.3850 h1        1 MOL      0.079917
    148 N13         4.4940    4.1240   -0.5120 n         1 MOL     -0.208681
    149 C50         3.0710    4.4060   -0.1630 c3        1 MOL     -0.275905
    150 C51         2.8310    4.9160    1.3040 c         1 MOL      0.543560
    151 O21         1.6910    5.2910    1.6000 o         1 MOL     -0.533995
    152 C52         2.1690    3.1470   -0.3620 c3        1 MOL      0.128670
    153 C53         2.3850    2.0510    0.6470 c3        1 MOL     -0.041797
    154 C54         1.5100    0.8770    0.2400 c         1 MOL      0.603867
    155 O22         2.0210   -0.0630   -0.4460 o         1 MOL     -0.691060
    156 O23         0.2800    0.9290    0.3630 o         1 MOL     -0.691060
    157 H67         4.7830    3.1670   -0.6660 hn        1 MOL      0.176405
    158 H68         2.6530    5.2310   -0.7410 h1        1 MOL      0.155215
    159 H69         2.5160    2.7230   -1.2980 hc        1 MOL      0.008495
    160 H70         1.1270    3.4610   -0.4660 hc        1 MOL      0.008495
    161 H71         2.1580    2.4020    1.6570 hc        1 MOL      0.001006
    162 H72         3.4350    1.8170    0.4800 hc        1 MOL      0.001006
    163 N14         3.8360    4.8830    2.1580 n         1 MOL     -0.233948
    164 C55         3.7780    5.4060    3.5500 c3        1 MOL     -0.212152
    165 H73         4.1440    6.4330    3.5660 h1        1 MOL      0.103272
    166 H74         2.7480    5.3830    3.9050 h1        1 MOL      0.103272
    167 H75         4.4000    4.7880    4.1970 h1        1 MOL      0.103272
    168 H76         4.6930    4.5860    1.7050 hn        1 MOL      0.224470
    169 Ca1        -0.5030   -1.2770   -0.8410 Ca        1 MOL      1.701946
    170 O24         0.0310   -0.7630   -3.2700 oh        1 MOL     -0.789092
    171 H77         0.1340    0.1320   -3.5850 ho        1 MOL      0.392637
    172 H78         0.3820   -1.3080   -3.9800 ho        1 MOL      0.392637
    173 O25        -2.2260   -1.3350    1.5110 oh        1 MOL     -0.789092
    174 H79        -2.0730   -0.5050    1.9650 ho        1 MOL      0.392637
    175 H80        -3.1240   -1.2740    1.1850 ho        1 MOL      0.392637
@<TRIPOS>BOND
     1    1    2 1   
     2    1    4 1   
     3    1    5 1   
     4    1    6 1   
     5    2    3 2   
     6    2    7 1   
     7    7    8 1   
     8    7   15 1   
     9    8    9 1   
    10    8   11 1   
    11    8   16 1   
    12    9   10 2   
    13    9   19 1   
    14   11   12 1   
    15   11   17 1   
    16   11   18 1   
    17   12   13 1   
    18   12   14 1   
    19   19   20 1   
    20   19   24 1   
    21   20   21 1   
    22   20   23 1   
    23   20   25 1   
    24   21   22 2   
    25   21   29 1   
    26   23   26 1   
    27   23   27 1   
    28   23   28 1   
    29   29   30 1   
    30   29   37 1   
    31   30   31 1   
    32   30   33 1   
    33   30   38 1   
    34   31   32 2   
    35   31   41 1   
    36   33   34 1   
    37   33   39 1   
    38   33   40 1   
    39   34   35 1   
    40   34   36 1   
    41   41   42 1   
    42   41   45 1   
    43   42   43 1   
    44   42   46 1   
    45   42   47 1   
    46   43   44 2   
    47   43   48 1   
    48   48   49 1   
    49   48   56 1   
    50   49   50 1   
    51   49   52 1   
    52   49   57 1   
    53   50   51 2   
    54   50   62 1   
    55   52   53 1   
    56   52   58 1   
    57   52   59 1   
    58   53   54 1   
    59   53   55 2   
    60   54   60 1   
    61   54   61 1   
    62   62   63 1   
    63   62   66 1   
    64   63   64 1   
    65   63   67 1   
    66   63   68 1   
    67   64   65 2   
    68   64   69 1   
    69   69   70 1   
    70   69   76 1   
    71   70   71 1   
    72   70   73 1   
    73   70   77 1   
    74   71   72 2   
    75   71   83 1   
    76   73   74 1   
    77   73   75 1   
    78   73   78 1   
    79   74   80 1   
    80   74   81 1   
    81   74   82 1   
    82   75   79 1   
    83   83   84 1   
    84   83   91 1   
    85   84   85 1   
    86   84   87 1   
    87   84   92 1   
    88   85   86 2   
    89   85  102 1   
    90   87   88 1   
    91   87   89 1   
    92   87   93 1   
    93   88   90 1   
    94   88   94 1   
    95   88   95 1   
    96   89   96 1   
    97   89   97 1   
    98   89   98 1   
    99   90   99 1   
   100   90  100 1   
   101   90  101 1   
   102  102  103 1   
   103  102  110 1   
   104  103  104 1   
   105  103  106 1   
   106  103  111 1   
   107  104  105 2   
   108  104  114 1   
   109  106  107 1   
   110  106  112 1   
   111  106  113 1   
   112  107  108 1   
   113  107  109 1   
   114  114  115 1   
   115  114  125 1   
   116  115  116 1   
   117  115  118 1   
   118  115  126 1   
   119  116  117 2   
   120  116  134 1   
   121  118  119 1   
   122  118  127 1   
   123  118  128 1   
   124  119  120 ar  
   125  119  121 ar  
   126  120  122 ar  
   127  120  129 1   
   128  121  123 ar  
   129  121  130 1   
   130  122  124 ar  
   131  122  131 1   
   132  123  124 ar  
   133  123  132 1   
   134  124  133 1   
   135  134  135 1   
   136  134  140 1   
   137  135  136 1   
   138  135  138 1   
   139  135  141 1   
   140  136  137 2   
   141  136  148 1   
   142  138  139 1   
   143  138  142 1   
   144  138  143 1   
   145  139  140 1   
   146  139  144 1   
   147  139  145 1   
   148  140  146 1   
   149  140  147 1   
   150  148  149 1   
   151  148  157 1   
   152  149  150 1   
   153  149  152 1   
   154  149  158 1   
   155  150  151 2   
   156  150  163 1   
   157  152  153 1   
   158  152  159 1   
   159  152  160 1   
   160  153  154 1   
   161  153  161 1   
   162  153  162 1   
   163  154  155 1   
   164  154  156 1   
   165  163  164 1   
   166  163  168 1   
   167  164  165 1   
   168  164  166 1   
   169  164  167 1   
   170  170  171 1   
   171  170  172 1   
   172  173  174 1   
   173  173  175 1   
@<TRIPOS>SUBSTRUCTURE
     1 MOL         1 TEMP              0 ****  ****    0 ROOT
