@<TRIPOS>MOLECULE
MOL
  192   187     1     0     0
SMALL
resp


@<TRIPOS>ATOM
      1 C1          5.7730    2.1460    5.6960 c3        1 MOL     -0.229806
      2 C2          5.1060    1.7180    4.3650 c         1 MOL      0.684666
      3 O1          4.6160    2.5560    3.5560 o         1 MOL     -0.608368
      4 H1          5.5210    1.4260    6.4760 hc        1 MOL      0.055075
      5 H2          6.8550    2.1770    5.5670 hc        1 MOL      0.055075
      6 H3          5.4110    3.1330    5.9830 hc        1 MOL      0.055075
      7 N1          5.0650    0.4490    3.9930 n         1 MOL     -0.438227
      8 C3          4.8550   -0.0560    2.6140 c3        1 MOL      0.173846
      9 C4          3.3790   -0.0100    2.2070 c         1 MOL     -0.226135
     10 O2          3.1060   -0.2640    1.0390 o         1 MOL     -0.029617
     11 C5          5.3520   -1.4440    2.4660 c3        1 MOL     -0.137499
     12 C6          4.6400   -2.4040    3.4330 c         1 MOL      0.709033
     13 O3          3.8900   -3.2830    3.0030 o         1 MOL     -0.686457
     14 O4          4.9780   -2.3350    4.6210 o         1 MOL     -0.686457
     15 H4          5.3560   -0.3050    4.6080 hn        1 MOL      0.242999
     16 H5          5.3480    0.6170    1.9180 h1        1 MOL      0.071355
     17 H6          6.4240   -1.4870    2.6830 hc        1 MOL      0.015483
     18 H7          5.1930   -1.8740    1.4710 hc        1 MOL      0.015483
     19 N2          2.4700    0.2210    3.1170 n         1 MOL     -0.097727
     20 C7          1.0900    0.1860    2.7720 c3        1 MOL      0.020026
     21 C8          0.5480    1.6110    2.3960 c         1 MOL      0.371465
     22 O5          0.6800    2.5270    3.2050 o         1 MOL     -0.499499
     23 C9          0.2140   -0.3730    3.9580 c3        1 MOL     -0.099018
     24 C10         0.5010   -1.8320    4.4160 c3        1 MOL      0.077483
     25 C11        -0.6100   -2.5840    5.2190 c3        1 MOL     -0.157833
     26 C12        -1.1780   -1.5860    6.2520 c3        1 MOL      0.055879
     27 N3         -2.0790   -2.0980    7.1940 n4        1 MOL     -0.331624
     28 H8          2.7000    0.3830    4.0900 hn        1 MOL      0.253476
     29 H9          1.0100   -0.5610    1.9830 h1        1 MOL      0.240350
     30 H10        -0.8510   -0.2050    3.8490 hc        1 MOL      0.011299
     31 H11         0.5740    0.1980    4.8150 hc        1 MOL      0.011299
     32 H12         1.3900   -1.8050    5.0410 hc        1 MOL      0.005259
     33 H13         0.7310   -2.4140    3.5170 hc        1 MOL      0.005259
     34 H14        -0.1840   -3.4870    5.6620 hc        1 MOL      0.077770
     35 H15        -1.3720   -2.9540    4.5390 hc        1 MOL      0.077770
     36 H16        -1.6310   -0.7560    5.7080 hx        1 MOL      0.087700
     37 H17        -0.4710   -1.1320    6.9540 hx        1 MOL      0.087700
     38 H18        -2.4130   -1.3880    7.8320 hn        1 MOL      0.317826
     39 H19        -2.9620   -2.4260    6.8050 hn        1 MOL      0.317826
     40 H20        -1.7150   -2.8710    7.7340 hn        1 MOL      0.317826
     41 N4         -0.1400    1.7470    1.2350 n         1 MOL      0.101904
     42 C13        -0.8530    0.8070    0.3530 c3        1 MOL     -0.617832
     43 C14        -1.2820   -0.5480    0.8790 c         1 MOL      0.009669
     44 O6         -0.6930   -1.5840    0.6920 o         1 MOL     -0.345817
     45 C15        -0.1140    0.7950   -1.0050 c3        1 MOL     -0.524002
     46 C16        -0.1310    2.0900   -1.8050 c         1 MOL      0.552472
     47 O7          0.5570    2.1990   -2.8270 o         1 MOL     -0.651071
     48 O8         -0.8890    3.0170   -1.4400 o         1 MOL     -0.651071
     49 H21        -0.1890    2.7460    1.1080 hn        1 MOL      0.084658
     50 H22        -1.8500    1.1930    0.1350 h1        1 MOL      0.223224
     51 H23        -0.5950    0.1550   -1.7550 hc        1 MOL      0.288603
     52 H24         0.9110    0.4390   -0.9240 hc        1 MOL      0.288603
     53 N5         -2.2870   -0.6350    1.7600 n         1 MOL     -0.015397
     54 C17        -3.3400    0.3880    1.9530 c3        1 MOL     -0.009360
     55 C18        -4.3900    0.0450    3.0440 c         1 MOL      0.480165
     56 O9         -4.2430   -0.9380    3.7620 o         1 MOL     -0.578918
     57 H25        -2.5550   -1.5210    2.1570 hn        1 MOL      0.197696
     58 H26        -3.9090    0.5400    1.0310 h1        1 MOL      0.041060
     59 H27        -2.9360    1.3670    2.2030 h1        1 MOL      0.041060
     60 N6         -5.4300    0.8690    3.1590 n         1 MOL     -0.433920
     61 C19        -5.6400    2.0000    2.3130 c3        1 MOL      0.291327
     62 C20        -6.4880    1.6550    1.1070 c         1 MOL      0.449875
     63 O10        -7.3120    0.7450    1.1700 o         1 MOL     -0.487631
     64 C21        -6.3040    3.2000    3.1110 c3        1 MOL     -0.431546
     65 C22        -7.4450    2.8850    4.1170 c         1 MOL      0.836212
     66 O11        -7.8840    3.7450    4.9160 o         1 MOL     -0.697826
     67 O12        -7.8770    1.7430    4.2160 o         1 MOL     -0.697826
     68 H28        -6.1330    0.6390    3.8500 hn        1 MOL      0.310600
     69 H29        -4.6720    2.4010    2.0290 h1        1 MOL     -0.034826
     70 H30        -6.6210    3.9670    2.4010 hc        1 MOL      0.059206
     71 H31        -5.4820    3.4770    3.7710 hc        1 MOL      0.059206
     72 N7         -6.3440    2.3890   -0.0240 n         1 MOL     -0.110619
     73 C23        -7.1950    2.3550   -1.1590 c3        1 MOL     -0.234911
     74 C24        -6.8900    1.1900   -2.1650 c         1 MOL      0.549456
     75 O13        -7.7530    0.8220   -2.9170 o         1 MOL     -0.528668
     76 H32        -5.6520    3.1340   -0.0290 hn        1 MOL      0.123670
     77 H33        -7.1200    3.3490   -1.5800 h1        1 MOL      0.111346
     78 H34        -8.2430    2.2980   -0.8590 h1        1 MOL      0.111346
     79 N8         -5.6640    0.7170   -2.1670 n         1 MOL     -0.388484
     80 C25        -5.2820   -0.5760   -2.7230 c3        1 MOL      0.027694
     81 C26        -4.4270   -1.3710   -1.6970 c         1 MOL      0.285226
     82 O14        -3.5900   -0.7650   -1.0860 o         1 MOL     -0.170121
     83 C27        -4.4840   -0.4880   -4.0280 c3        1 MOL      0.170439
     84 C28        -3.4120    0.5770   -4.0210 c3        1 MOL     -0.363758
     85 O15        -5.3900   -0.1910   -5.0530 oh        1 MOL     -0.624670
     86 H35        -4.9290    1.1550   -1.6270 hn        1 MOL      0.145337
     87 H36        -6.2120   -1.0960   -2.8890 h1        1 MOL      0.118259
     88 H37        -4.0440   -1.4750   -4.2100 h1        1 MOL      0.137678
     89 H38        -5.5300    0.7610   -5.0240 ho        1 MOL      0.419664
     90 H39        -2.8230    0.3930   -4.9240 hc        1 MOL      0.107741
     91 H40        -3.7160    1.6260   -4.1040 hc        1 MOL      0.107741
     92 H41        -2.7980    0.3850   -3.1490 hc        1 MOL      0.107741
     93 N9         -4.5760   -2.7260   -1.6080 n         1 MOL     -0.381671
     94 C29        -3.7850   -3.5320   -0.7190 c3        1 MOL     -0.088810
     95 C30        -2.4810   -4.1400   -1.2510 c         1 MOL      0.306426
     96 O16        -1.9310   -5.1050   -0.8430 o         1 MOL     -0.512256
     97 C31        -4.6430   -4.6380   -0.0770 c3        1 MOL      0.161220
     98 C32        -5.0460   -5.8010   -1.0450 c3        1 MOL      0.102619
     99 C33        -5.8640   -4.0000    0.5450 c3        1 MOL     -0.312530
    100 C34        -5.7970   -6.9520   -0.3630 c3        1 MOL     -0.236392
    101 H42        -5.3040   -3.1210   -2.1740 hn        1 MOL      0.281835
    102 H43        -3.5280   -2.9220    0.1440 h1        1 MOL      0.141549
    103 H44        -4.0760   -5.0210    0.7740 hc        1 MOL      0.010978
    104 H45        -4.1460   -6.2080   -1.5030 hc        1 MOL     -0.007845
    105 H46        -5.6520   -5.3460   -1.8320 hc        1 MOL     -0.007845
    106 H47        -6.2860   -4.6040    1.3560 hc        1 MOL      0.073677
    107 H48        -5.7090   -2.9550    0.8060 hc        1 MOL      0.073677
    108 H49        -6.7220   -3.9270   -0.1250 hc        1 MOL      0.073677
    109 H50        -5.2240   -7.3740    0.4700 hc        1 MOL      0.060401
    110 H51        -6.7580   -6.5310   -0.0780 hc        1 MOL      0.060401
    111 H52        -5.9040   -7.7620   -1.0800 hc        1 MOL      0.060401
    112 N10        -2.0060   -3.4970   -2.2870 n         1 MOL      0.143446
    113 C35        -0.9050   -3.9770   -3.1220 c3        1 MOL     -0.144582
    114 C36         0.4700   -3.7740   -2.4840 c         1 MOL      0.302844
    115 O17         1.4150   -4.1330   -3.2300 o         1 MOL     -0.517949
    116 C37        -0.9680   -3.3060   -4.4750 c3        1 MOL      0.373216
    117 C38        -0.6570   -1.8190   -4.5570 c3        1 MOL     -0.215967
    118 O18        -2.2450   -3.5060   -5.0570 oh        1 MOL     -0.669880
    119 H53        -2.5510   -2.7720   -2.7340 hn        1 MOL     -0.057132
    120 H54        -1.0130   -5.0440   -3.2830 h1        1 MOL      0.132949
    121 H55        -0.2350   -3.7170   -5.1590 h1        1 MOL     -0.005461
    122 H56        -2.3630   -2.8460   -5.7510 ho        1 MOL      0.405382
    123 H57        -0.9860   -1.5200   -5.5620 hc        1 MOL      0.069761
    124 H58        -1.1130   -1.4550   -3.6340 hc        1 MOL      0.069761
    125 H59         0.4030   -1.5790   -4.5130 hc        1 MOL      0.069761
    126 N11         0.6640   -3.1780   -1.2710 n         1 MOL      0.041948
    127 C39         1.9790   -2.8180   -0.7420 c3        1 MOL     -0.360049
    128 C40         2.6730   -1.9420   -1.7480 c         1 MOL      0.480832
    129 O19         2.0730   -1.4900   -2.6580 o         1 MOL     -0.497642
    130 C41         2.7060   -4.0730   -0.1820 c3        1 MOL      0.356739
    131 C42         1.8240   -4.7280    0.8740 c3        1 MOL     -0.289500
    132 O20         4.0770   -3.8670    0.3660 oh        1 MOL     -0.782479
    133 H60        -0.1580   -2.9180   -0.7410 hn        1 MOL      0.142481
    134 H61         1.8360   -2.1340    0.0960 h1        1 MOL      0.098948
    135 H62         2.6830   -4.8610   -0.9390 h1        1 MOL      0.037393
    136 H63         4.0140   -3.8070    1.3230 ho        1 MOL      0.468495
    137 H64         2.4380   -5.4530    1.4170 hc        1 MOL      0.077912
    138 H65         1.5340   -3.8950    1.5140 hc        1 MOL      0.077912
    139 H66         0.9650   -5.2020    0.4020 hc        1 MOL      0.077912
    140 N12         3.9360   -1.7370   -1.5520 n         1 MOL     -0.309399
    141 C43         4.7710   -0.8750   -2.4480 c3        1 MOL      0.060593
    142 C44         4.8190    0.6750   -2.2180 c         1 MOL      0.621432
    143 O21         5.3420    1.3430   -3.0860 o         1 MOL     -0.632565
    144 C45         6.0820   -1.6040   -2.8870 c3        1 MOL     -0.072260
    145 C46         7.1560   -1.5610   -1.7130 c3        1 MOL     -0.093284
    146 C47         8.3670   -2.5100   -1.7440 c3        1 MOL     -0.381357
    147 C48         7.9840   -4.0150   -1.4520 c3        1 MOL      0.118105
    148 N13         9.0920   -4.9440   -1.5670 n4        1 MOL     -0.396945
    149 H67         4.4150   -2.2280   -0.8000 hn        1 MOL      0.333580
    150 H68         4.1830   -0.8900   -3.3720 h1        1 MOL      0.083652
    151 H69         6.4270   -1.1280   -3.8060 hc        1 MOL      0.039141
    152 H70         5.8840   -2.6570   -3.0640 hc        1 MOL      0.039141
    153 H71         6.6260   -1.7670   -0.7860 hc        1 MOL      0.100054
    154 H72         7.6050   -0.5720   -1.6880 hc        1 MOL      0.100054
    155 H73         9.2140   -2.3050   -1.0900 hc        1 MOL      0.129403
    156 H74         8.7540   -2.3410   -2.7520 hc        1 MOL      0.129403
    157 H75         7.1890   -4.2700   -2.1670 hx        1 MOL      0.094321
    158 H76         7.4140   -4.1510   -0.5340 hx        1 MOL      0.094321
    159 H77         9.6220   -4.7320   -2.4070 hn        1 MOL      0.335204
    160 H78         9.7850   -4.7810   -0.8480 hn        1 MOL      0.335204
    161 H79         8.8320   -5.9200   -1.5580 hn        1 MOL      0.335204
    162 N14         4.2200    1.1870   -1.1460 n         1 MOL     -0.316324
    163 C49         4.1740    2.6540   -1.0010 c3        1 MOL      0.075533
    164 C50         5.5570    3.1020   -0.6120 c         1 MOL      0.261555
    165 O22         6.2190    2.5980    0.2900 o         1 MOL     -0.489851
    166 C51         3.0220    3.0730   -0.0460 c3        1 MOL      0.538249
    167 C52         3.1240    4.4810    0.4210 c3        1 MOL     -0.779472
    168 C53         2.7750    5.5180   -0.6460 c         1 MOL      0.853408
    169 O23         3.6930    5.9120   -1.3250 o         1 MOL     -0.788025
    170 O24         1.6000    5.7840   -0.9130 o         1 MOL     -0.788025
    171 H80         3.7910    0.6170   -0.4330 hn        1 MOL     -0.071975
    172 H81         3.9750    3.1710   -1.9390 h1        1 MOL      0.042297
    173 H82         3.3000    2.5580    0.8720 hc        1 MOL     -0.032282
    174 H83         2.0640    2.6140   -0.2680 hc        1 MOL     -0.032282
    175 H84         4.1390    4.7150    0.7330 hc        1 MOL      0.203695
    176 H85         2.3980    4.6440    1.2100 hc        1 MOL      0.203695
    177 N15         6.0760    4.1330   -1.2540 n         1 MOL     -0.238277
    178 C54         7.3580    4.7820   -1.0200 c3        1 MOL      0.113915
    179 H86         7.7240    5.2090   -1.9540 h1        1 MOL      0.009300
    180 H87         7.2340    5.5750   -0.2830 h1        1 MOL      0.009300
    181 H88         8.0750    4.0500   -0.6500 h1        1 MOL      0.009300
    182 H89         5.4510    4.5560   -1.9240 hn        1 MOL      0.340921
    183 Ca1        -0.8160    5.5140   -1.6130 Ca        1 MOL      1.606035
    184 O25        -2.7080    5.3320   -3.3670 oh        1 MOL     -0.808512
    185 H90        -2.9640    5.5670   -4.2580 ho        1 MOL      0.409774
    186 H91        -3.5280    5.3290   -2.8700 ho        1 MOL      0.409774
    187 O26        -0.4710    7.5130   -3.3620 oh        1 MOL     -0.808512
    188 H92         0.1510    7.7860   -4.0370 ho        1 MOL      0.409774
    189 H93        -0.5270    8.2600   -2.7660 ho        1 MOL      0.409774
    190 O27         0.7650    4.7550   -3.6260 oh        1 MOL     -0.808512
    191 H94         1.1210    4.8260   -4.5150 ho        1 MOL      0.409774
    192 H95         0.7140    3.8210   -3.4540 ho        1 MOL      0.409774
@<TRIPOS>BOND
     1    1    2 1   
     2    1    4 1   
     3    1    5 1   
     4    1    6 1   
     5    2    3 2   
     6    2    7 1   
     7    7    8 1   
     8    7   15 1   
     9    8    9 1   
    10    8   11 1   
    11    8   16 1   
    12    9   10 2   
    13    9   19 1   
    14   11   12 1   
    15   11   17 1   
    16   11   18 1   
    17   12   13 1   
    18   12   14 1   
    19   19   20 1   
    20   19   28 1   
    21   20   21 1   
    22   20   23 1   
    23   20   29 1   
    24   21   22 2   
    25   21   41 1   
    26   23   24 1   
    27   23   30 1   
    28   23   31 1   
    29   24   25 1   
    30   24   32 1   
    31   24   33 1   
    32   25   26 1   
    33   25   34 1   
    34   25   35 1   
    35   26   27 1   
    36   26   36 1   
    37   26   37 1   
    38   27   38 1   
    39   27   39 1   
    40   27   40 1   
    41   41   42 1   
    42   41   49 1   
    43   42   43 1   
    44   42   45 1   
    45   42   50 1   
    46   43   44 2   
    47   43   53 1   
    48   45   46 1   
    49   45   51 1   
    50   45   52 1   
    51   46   47 1   
    52   46   48 1   
    53   53   54 1   
    54   53   57 1   
    55   54   55 1   
    56   54   58 1   
    57   54   59 1   
    58   55   56 2   
    59   55   60 1   
    60   60   61 1   
    61   60   68 1   
    62   61   62 1   
    63   61   64 1   
    64   61   69 1   
    65   62   63 2   
    66   62   72 1   
    67   64   65 1   
    68   64   70 1   
    69   64   71 1   
    70   65   66 1   
    71   65   67 1   
    72   72   73 1   
    73   72   76 1   
    74   73   74 1   
    75   73   77 1   
    76   73   78 1   
    77   74   75 2   
    78   74   79 1   
    79   79   80 1   
    80   79   86 1   
    81   80   81 1   
    82   80   83 1   
    83   80   87 1   
    84   81   82 2   
    85   81   93 1   
    86   83   84 1   
    87   83   85 1   
    88   83   88 1   
    89   84   90 1   
    90   84   91 1   
    91   84   92 1   
    92   85   89 1   
    93   93   94 1   
    94   93  101 1   
    95   94   95 1   
    96   94   97 1   
    97   94  102 1   
    98   95   96 2   
    99   95  112 1   
   100   97   98 1   
   101   97   99 1   
   102   97  103 1   
   103   98  100 1   
   104   98  104 1   
   105   98  105 1   
   106   99  106 1   
   107   99  107 1   
   108   99  108 1   
   109  100  109 1   
   110  100  110 1   
   111  100  111 1   
   112  112  113 1   
   113  112  119 1   
   114  113  114 1   
   115  113  116 1   
   116  113  120 1   
   117  114  115 2   
   118  114  126 1   
   119  116  117 1   
   120  116  118 1   
   121  116  121 1   
   122  117  123 1   
   123  117  124 1   
   124  117  125 1   
   125  118  122 1   
   126  126  127 1   
   127  126  133 1   
   128  127  128 1   
   129  127  130 1   
   130  127  134 1   
   131  128  129 2   
   132  128  140 1   
   133  130  131 1   
   134  130  132 1   
   135  130  135 1   
   136  131  137 1   
   137  131  138 1   
   138  131  139 1   
   139  132  136 1   
   140  140  141 1   
   141  140  149 1   
   142  141  142 1   
   143  141  144 1   
   144  141  150 1   
   145  142  143 2   
   146  142  162 1   
   147  144  145 1   
   148  144  151 1   
   149  144  152 1   
   150  145  146 1   
   151  145  153 1   
   152  145  154 1   
   153  146  147 1   
   154  146  155 1   
   155  146  156 1   
   156  147  148 1   
   157  147  157 1   
   158  147  158 1   
   159  148  159 1   
   160  148  160 1   
   161  148  161 1   
   162  162  163 1   
   163  162  171 1   
   164  163  164 1   
   165  163  166 1   
   166  163  172 1   
   167  164  165 2   
   168  164  177 1   
   169  166  167 1   
   170  166  173 1   
   171  166  174 1   
   172  167  168 1   
   173  167  175 1   
   174  167  176 1   
   175  168  169 1   
   176  168  170 1   
   177  177  178 1   
   178  177  182 1   
   179  178  179 1   
   180  178  180 1   
   181  178  181 1   
   182  184  185 1   
   183  184  186 1   
   184  187  188 1   
   185  187  189 1   
   186  190  191 1   
   187  190  192 1   
@<TRIPOS>SUBSTRUCTURE
     1 MOL         1 TEMP              0 ****  ****    0 ROOT
