@<TRIPOS>MOLECULE
MOL
  184   179     1     0     0
SMALL
resp


@<TRIPOS>ATOM
      1 C1          1.7860   -0.6960    3.8840 c3        1 MOL     -0.101696
      2 C2          2.3600    0.6800    3.3420 c         1 MOL      0.482412
      3 O1          1.7750    1.2600    2.4450 o         1 MOL     -0.500921
      4 H1          2.6130   -1.3600    4.1350 hc        1 MOL      0.027118
      5 H2          1.1830   -0.5140    4.7740 hc        1 MOL      0.027118
      6 H3          1.1680   -1.1610    3.1150 hc        1 MOL      0.027118
      7 N1          3.4640    1.2360    3.9660 n         1 MOL     -0.517918
      8 C3          4.2100    2.3830    3.2610 c3        1 MOL      0.247443
      9 C4          5.0180    1.7890    2.1290 c         1 MOL      0.449059
     10 O2          5.4360    2.4150    1.1510 o         1 MOL     -0.552955
     11 C5          5.0550    3.2890    4.1960 c3        1 MOL     -0.219970
     12 C6          6.0480    2.5330    4.9530 c         1 MOL      0.765439
     13 O3          6.9090    3.1490    5.6860 o         1 MOL     -0.751603
     14 O4          6.1140    1.3070    4.7890 o         1 MOL     -0.751603
     15 H4          3.8800    0.7800    4.7600 hn        1 MOL      0.285261
     16 H5          3.4780    3.0480    2.7990 h1        1 MOL      0.019577
     17 H6          4.3520    3.5940    4.9720 hc        1 MOL      0.032553
     18 H7          5.4450    4.1420    3.6390 hc        1 MOL      0.032553
     19 N2          5.2430    0.4500    2.2120 n         1 MOL     -0.071568
     20 C7          6.0680   -0.2790    1.2380 c3        1 MOL     -0.186338
     21 C8          5.3500   -0.3490   -0.1540 c         1 MOL      0.623272
     22 O5          4.2670   -0.9760   -0.2580 o         1 MOL     -0.721428
     23 C9          7.5430    0.0730    1.3740 c3        1 MOL     -0.337107
     24 H8          4.8520   -0.0250    3.0100 hn        1 MOL      0.189928
     25 H9          6.0630   -1.3070    1.6000 h1        1 MOL      0.131332
     26 H10         7.9540   -0.1000    2.3690 hc        1 MOL      0.107208
     27 H11         8.1680   -0.4160    0.6290 hc        1 MOL      0.107208
     28 H12         7.7300    1.1240    1.1340 hc        1 MOL      0.107208
     29 N3          6.0010    0.2400   -1.0960 n         1 MOL     -0.311872
     30 C10         5.4370    0.5500   -2.4260 c3        1 MOL      0.032304
     31 C11         4.9250    1.9890   -2.6450 c         1 MOL      0.603084
     32 O6          4.6350    2.3960   -3.7690 o         1 MOL     -0.554568
     33 C12         6.2450    0.0300   -3.6400 c3        1 MOL     -0.200251
     34 C13         7.1070   -1.2030   -3.3910 c         1 MOL      0.662357
     35 O7          8.3600   -1.0740   -3.1570 o         1 MOL     -0.701459
     36 O8          6.4850   -2.3180   -3.3570 o         1 MOL     -0.701459
     37 H13         6.9670    0.4320   -0.8480 hn        1 MOL      0.261393
     38 H14         4.4780    0.0440   -2.3250 h1        1 MOL      0.050658
     39 H15         6.8330    0.8760   -3.9830 hc        1 MOL      0.038902
     40 H16         5.4610   -0.1440   -4.3740 hc        1 MOL      0.038902
     41 N4          4.9340    2.8200   -1.5990 n         1 MOL     -0.309055
     42 C14         4.8150    4.2540   -1.5220 c3        1 MOL     -0.167958
     43 C15         3.4670    4.8250   -2.0530 c         1 MOL      0.549568
     44 O9          3.2490    6.0370   -2.3170 o         1 MOL     -0.606879
     45 H17         5.0540    2.3310   -0.7150 hn        1 MOL      0.191188
     46 H18         5.6300    4.7780   -2.0370 h1        1 MOL      0.111065
     47 H19         4.7440    4.5310   -0.4690 h1        1 MOL      0.111065
     48 N5          2.4560    3.9750   -2.1740 n         1 MOL     -0.131982
     49 C16         1.0700    4.2780   -2.5590 c3        1 MOL     -0.286629
     50 C17         0.2880    5.2150   -1.6220 c         1 MOL      0.667282
     51 O10         0.2780    5.0190   -0.3970 o         1 MOL     -0.548626
     52 C18         0.3300    2.9770   -2.8780 c3        1 MOL     -0.134157
     53 C19         1.0960    2.0140   -3.7270 c         1 MOL      0.603299
     54 N6          1.7650    1.1200   -3.2000 n         1 MOL     -0.682718
     55 O11         1.0880    2.0830   -4.9720 o         1 MOL     -0.596673
     56 H20         2.6280    3.0360   -1.8430 hn        1 MOL      0.151315
     57 H21         1.1920    4.7400   -3.5340 h1        1 MOL      0.121259
     58 H22        -0.6590    3.1100   -3.3180 hc        1 MOL      0.086774
     59 H23         0.1580    2.3980   -1.9710 hc        1 MOL      0.086774
     60 H24         1.7170    0.9580   -2.1990 hn        1 MOL      0.358781
     61 H25         2.1510    0.3720   -3.7560 hn        1 MOL      0.358781
     62 N7         -0.3710    6.1850   -2.2330 n         1 MOL     -0.367644
     63 C20        -1.4280    7.0180   -1.6850 c3        1 MOL     -0.213293
     64 C21        -2.7830    6.3450   -1.4350 c         1 MOL      0.646779
     65 O12        -3.2620    5.5260   -2.2240 o         1 MOL     -0.507320
     66 H26        -0.2570    6.1750   -3.2370 hn        1 MOL      0.281985
     67 H27        -1.6370    7.8940   -2.3000 h1        1 MOL      0.115597
     68 H28        -0.9950    7.4030   -0.7570 h1        1 MOL      0.115597
     69 N8         -3.5140    6.6640   -0.3350 n         1 MOL     -0.546206
     70 C22        -4.9170    6.1590   -0.0440 c3        1 MOL     -0.239711
     71 C23        -5.0700    4.7440    0.4930 c         1 MOL      0.460834
     72 O13        -6.2030    4.3800    0.9130 o         1 MOL     -0.537067
     73 C24        -5.6350    7.2870    0.8450 c3        1 MOL      0.507023
     74 C25        -5.2140    7.1470    2.2980 c3        1 MOL     -0.218294
     75 O14        -5.4050    8.5860    0.3370 oh        1 MOL     -0.638422
     76 H29        -3.0540    7.2350    0.3470 hn        1 MOL      0.276922
     77 H30        -5.4190    6.1670   -1.0080 h1        1 MOL      0.156192
     78 H31        -6.6920    7.0050    0.8970 h1        1 MOL      0.005608
     79 H32        -4.4520    8.7530    0.3430 ho        1 MOL      0.378890
     80 H33        -5.4740    8.0750    2.8020 hc        1 MOL      0.041159
     81 H34        -5.7140    6.3320    2.8130 hc        1 MOL      0.041159
     82 H35        -4.1450    6.9520    2.4700 hc        1 MOL      0.041159
     83 N9         -3.9980    3.9820    0.3570 n         1 MOL     -0.074889
     84 C26        -3.7440    2.6180    0.8910 c3        1 MOL     -0.171614
     85 C27        -2.8380    1.8030   -0.0590 c         1 MOL      0.463530
     86 O15        -2.4410    2.3280   -1.1020 o         1 MOL     -0.452730
     87 C28        -3.3000    2.6690    2.3870 c3        1 MOL      0.144879
     88 C29        -1.9570    3.4300    2.4470 c3        1 MOL      0.133961
     89 C30        -4.3130    3.2410    3.3400 c3        1 MOL     -0.354269
     90 C31        -1.3010    3.3510    3.7890 c3        1 MOL     -0.232723
     91 H36        -3.3760    4.2470   -0.3920 hn        1 MOL      0.137756
     92 H37        -4.6520    2.0130    0.9220 h1        1 MOL      0.085711
     93 H38        -3.0800    1.6410    2.6470 hc        1 MOL      0.001190
     94 H39        -2.1980    4.4390    2.1310 hc        1 MOL      0.011462
     95 H40        -1.2060    3.0300    1.7660 hc        1 MOL      0.011462
     96 H41        -4.3430    4.3340    3.3080 hc        1 MOL      0.089118
     97 H42        -5.3060    2.9550    3.0070 hc        1 MOL      0.089118
     98 H43        -4.1800    2.8670    4.3500 hc        1 MOL      0.089118
     99 H44        -1.9220    3.9370    4.4790 hc        1 MOL      0.048050
    100 H45        -1.0370    2.3470    4.1190 hc        1 MOL      0.048050
    101 H46        -0.3800    3.9190    3.6570 hc        1 MOL      0.048050
    102 N10        -2.5780    0.5060    0.1970 n         1 MOL     -0.383114
    103 C32        -1.7630   -0.4080   -0.5450 c3        1 MOL      0.129446
    104 C33        -2.6450   -1.6490   -0.9430 c         1 MOL      0.275709
    105 O16        -2.2600   -2.8100   -0.5570 o         1 MOL     -0.356332
    106 C34        -0.5650   -0.8070    0.3790 c3        1 MOL     -0.241692
    107 C35         0.5450   -1.6330   -0.4180 c         1 MOL      0.734737
    108 O17         0.3820   -2.0710   -1.5530 o         1 MOL     -0.710883
    109 O18         1.5840   -1.9490    0.1590 o         1 MOL     -0.710883
    110 H47        -3.1270    0.0680    0.9220 hn        1 MOL      0.239357
    111 H48        -1.4230    0.0560   -1.4740 h1        1 MOL      0.039072
    112 H49        -1.0600   -1.2960    1.2120 hc        1 MOL      0.086059
    113 H50        -0.0850    0.0720    0.8200 hc        1 MOL      0.086059
    114 N11        -3.8280   -1.4520   -1.5450 n         1 MOL     -0.245282
    115 C36        -4.5960   -2.5890   -2.1360 c3        1 MOL      0.208428
    116 C37        -4.9610   -3.7210   -1.2180 c         1 MOL      0.127808
    117 O19        -5.5020   -3.5510   -0.1100 o         1 MOL     -0.387054
    118 C38        -5.9540   -2.0450   -2.7240 c3        1 MOL     -0.421201
    119 C39        -6.8390   -1.2480   -1.7870 ca        1 MOL      0.296370
    120 C40        -7.8560   -1.8680   -1.0490 ca        1 MOL     -0.319259
    121 C41        -6.6550    0.1490   -1.6890 ca        1 MOL     -0.319259
    122 C42        -8.5050   -1.1280   -0.0740 ca        1 MOL      0.005477
    123 C43        -7.3260    0.8560   -0.6940 ca        1 MOL      0.005477
    124 C44        -8.2620    0.2520    0.1780 ca        1 MOL     -0.217768
    125 H51        -4.1670   -0.5020   -1.6550 hn        1 MOL      0.212209
    126 H52        -4.0010   -3.0360   -2.9320 h1        1 MOL      0.032479
    127 H53        -6.5840   -2.8930   -2.9920 hc        1 MOL      0.126358
    128 H54        -5.7280   -1.4110   -3.5890 hc        1 MOL      0.126358
    129 H55        -8.0670   -2.9060   -1.2920 ha        1 MOL      0.170794
    130 H56        -5.8790    0.6840   -2.2280 ha        1 MOL      0.170794
    131 H57        -9.3410   -1.5630    0.4550 ha        1 MOL      0.082695
    132 H58        -7.0890    1.9120   -0.6350 ha        1 MOL      0.082695
    133 H59        -8.7730    0.9460    0.8300 ha        1 MOL      0.141191
    134 N12        -4.6230   -4.9910   -1.4880 n         1 MOL      0.073400
    135 C45        -4.9320   -6.0930   -0.5760 c3        1 MOL      0.043501
    136 C46        -4.3200   -6.0120    0.8170 c         1 MOL      0.364062
    137 O20        -4.9010   -6.5130    1.8040 o         1 MOL     -0.522433
    138 C47        -4.4190   -7.3630   -1.2870 c3        1 MOL     -0.249917
    139 C48        -3.3410   -6.8630   -2.2390 c3        1 MOL      0.075537
    140 C49        -3.8270   -5.4830   -2.6010 c3        1 MOL     -0.136969
    141 H60        -5.9950   -5.9590   -0.4110 h1        1 MOL      0.037572
    142 H61        -3.9790   -8.1010   -0.6170 hc        1 MOL      0.087631
    143 H62        -5.2400   -7.7660   -1.8900 hc        1 MOL      0.087631
    144 H63        -2.3710   -6.8520   -1.7410 hc        1 MOL      0.009903
    145 H64        -3.3290   -7.4340   -3.1580 hc        1 MOL      0.009903
    146 H65        -2.9080   -4.8910   -2.6830 h1        1 MOL      0.061304
    147 H66        -4.4510   -5.5320   -3.5000 h1        1 MOL      0.061304
    148 N13        -3.1420   -5.3630    0.8560 n         1 MOL     -0.189691
    149 C50        -2.3330   -5.2240    2.0640 c3        1 MOL     -0.163122
    150 C51        -2.8750   -4.0780    2.9220 c         1 MOL      0.402644
    151 O21        -2.5000   -4.0180    4.0910 o         1 MOL     -0.561541
    152 C52        -0.8700   -4.9230    1.7650 c3        1 MOL      0.141626
    153 C53        -0.0930   -6.0660    1.1550 c3        1 MOL     -0.189629
    154 C54         1.3120   -5.6400    0.7800 c         1 MOL      0.756246
    155 O22         1.9780   -5.0300    1.6080 o         1 MOL     -0.770399
    156 O23         1.6990   -5.6910   -0.4130 o         1 MOL     -0.770399
    157 H67        -2.7350   -5.0140   -0.0010 hn        1 MOL      0.313624
    158 H68        -2.3010   -6.1320    2.6600 h1        1 MOL      0.130370
    159 H69        -0.3360   -4.7630    2.7110 hc        1 MOL      0.007800
    160 H70        -0.7090   -4.0670    1.1230 hc        1 MOL      0.007800
    161 H71        -0.6230   -6.2830    0.2360 hc        1 MOL      0.010840
    162 H72        -0.1090   -6.9130    1.8460 hc        1 MOL      0.010840
    163 N14        -3.8030   -3.2830    2.4650 n         1 MOL      0.003235
    164 C55        -4.6460   -2.4610    3.3790 c3        1 MOL     -0.315765
    165 H73        -5.1490   -1.6820    2.8070 h1        1 MOL      0.117202
    166 H74        -5.3900   -3.0970    3.8590 h1        1 MOL      0.117202
    167 H75        -4.0150   -2.0010    4.1410 h1        1 MOL      0.117202
    168 H76        -4.1410   -3.4390    1.5170 hn        1 MOL      0.070138
    169 Ca1         3.3860   -3.6150   -0.1140 Ca        1 MOL      1.798923
    170 O24         2.4690   -3.2330   -2.6550 oh        1 MOL     -0.802409
    171 H77         1.5830   -2.9120   -2.4610 ho        1 MOL      0.388229
    172 H78         2.7050   -2.7980   -3.4760 ho        1 MOL      0.388229
    173 O25         4.0730   -5.5380   -2.5120 oh        1 MOL     -0.802409
    174 H79         3.6800   -5.0080   -3.2070 ho        1 MOL      0.388229
    175 H80         3.7250   -6.4180   -2.6620 ho        1 MOL      0.388229
    176 O26         4.9850   -5.4300    1.2770 oh        1 MOL     -0.802409
    177 H81         5.8900   -5.4980    1.5830 ho        1 MOL      0.388229
    178 H82         4.4600   -5.6970    2.0370 ho        1 MOL      0.388229
    179 O27         6.0220   -3.5700   -0.6680 oh        1 MOL     -0.802409
    180 H83         6.8340   -4.0030   -0.3770 ho        1 MOL      0.388229
    181 H84         6.2130   -3.2810   -1.5520 ho        1 MOL      0.388229
    182 O28         4.1730   -2.9750    2.3650 oh        1 MOL     -0.802409
    183 H85         5.0720   -3.1620    2.6150 ho        1 MOL      0.388229
    184 H86         3.6400   -3.3620    3.0590 ho        1 MOL      0.388229
@<TRIPOS>BOND
     1    1    2 1   
     2    1    4 1   
     3    1    5 1   
     4    1    6 1   
     5    2    3 2   
     6    2    7 1   
     7    7    8 1   
     8    7   15 1   
     9    8    9 1   
    10    8   11 1   
    11    8   16 1   
    12    9   10 2   
    13    9   19 1   
    14   11   12 1   
    15   11   17 1   
    16   11   18 1   
    17   12   13 1   
    18   12   14 1   
    19   19   20 1   
    20   19   24 1   
    21   20   21 1   
    22   20   23 1   
    23   20   25 1   
    24   21   22 2   
    25   21   29 1   
    26   23   26 1   
    27   23   27 1   
    28   23   28 1   
    29   29   30 1   
    30   29   37 1   
    31   30   31 1   
    32   30   33 1   
    33   30   38 1   
    34   31   32 2   
    35   31   41 1   
    36   33   34 1   
    37   33   39 1   
    38   33   40 1   
    39   34   35 1   
    40   34   36 1   
    41   41   42 1   
    42   41   45 1   
    43   42   43 1   
    44   42   46 1   
    45   42   47 1   
    46   43   44 2   
    47   43   48 1   
    48   48   49 1   
    49   48   56 1   
    50   49   50 1   
    51   49   52 1   
    52   49   57 1   
    53   50   51 2   
    54   50   62 1   
    55   52   53 1   
    56   52   58 1   
    57   52   59 1   
    58   53   54 1   
    59   53   55 2   
    60   54   60 1   
    61   54   61 1   
    62   62   63 1   
    63   62   66 1   
    64   63   64 1   
    65   63   67 1   
    66   63   68 1   
    67   64   65 2   
    68   64   69 1   
    69   69   70 1   
    70   69   76 1   
    71   70   71 1   
    72   70   73 1   
    73   70   77 1   
    74   71   72 2   
    75   71   83 1   
    76   73   74 1   
    77   73   75 1   
    78   73   78 1   
    79   74   80 1   
    80   74   81 1   
    81   74   82 1   
    82   75   79 1   
    83   83   84 1   
    84   83   91 1   
    85   84   85 1   
    86   84   87 1   
    87   84   92 1   
    88   85   86 2   
    89   85  102 1   
    90   87   88 1   
    91   87   89 1   
    92   87   93 1   
    93   88   90 1   
    94   88   94 1   
    95   88   95 1   
    96   89   96 1   
    97   89   97 1   
    98   89   98 1   
    99   90   99 1   
   100   90  100 1   
   101   90  101 1   
   102  102  103 1   
   103  102  110 1   
   104  103  104 1   
   105  103  106 1   
   106  103  111 1   
   107  104  105 2   
   108  104  114 1   
   109  106  107 1   
   110  106  112 1   
   111  106  113 1   
   112  107  108 1   
   113  107  109 1   
   114  114  115 1   
   115  114  125 1   
   116  115  116 1   
   117  115  118 1   
   118  115  126 1   
   119  116  117 2   
   120  116  134 1   
   121  118  119 1   
   122  118  127 1   
   123  118  128 1   
   124  119  120 ar  
   125  119  121 ar  
   126  120  122 ar  
   127  120  129 1   
   128  121  123 ar  
   129  121  130 1   
   130  122  124 ar  
   131  122  131 1   
   132  123  124 ar  
   133  123  132 1   
   134  124  133 1   
   135  134  135 1   
   136  134  140 1   
   137  135  136 1   
   138  135  138 1   
   139  135  141 1   
   140  136  137 2   
   141  136  148 1   
   142  138  139 1   
   143  138  142 1   
   144  138  143 1   
   145  139  140 1   
   146  139  144 1   
   147  139  145 1   
   148  140  146 1   
   149  140  147 1   
   150  148  149 1   
   151  148  157 1   
   152  149  150 1   
   153  149  152 1   
   154  149  158 1   
   155  150  151 2   
   156  150  163 1   
   157  152  153 1   
   158  152  159 1   
   159  152  160 1   
   160  153  154 1   
   161  153  161 1   
   162  153  162 1   
   163  154  155 1   
   164  154  156 1   
   165  163  164 1   
   166  163  168 1   
   167  164  165 1   
   168  164  166 1   
   169  164  167 1   
   170  170  171 1   
   171  170  172 1   
   172  173  174 1   
   173  173  175 1   
   174  176  177 1   
   175  176  178 1   
   176  179  180 1   
   177  179  181 1   
   178  182  183 1   
   179  182  184 1   
@<TRIPOS>SUBSTRUCTURE
     1 MOL         1 TEMP              0 ****  ****    0 ROOT
