@<TRIPOS>MOLECULE
MOL
  178   175     1     0     0
SMALL
resp


@<TRIPOS>ATOM
      1 C1          4.1320   -2.6190    3.7750 c3        1 MOL     -0.486601
      2 C2          5.0490   -1.7440    2.9030 c         1 MOL      0.552335
      3 O1          4.7580   -1.5580    1.7050 o         1 MOL     -0.519941
      4 H1          3.2850   -2.0270    4.1190 hc        1 MOL      0.138442
      5 H2          3.7700   -3.4640    3.1880 hc        1 MOL      0.138442
      6 H3          4.6910   -2.9870    4.6350 hc        1 MOL      0.138442
      7 N1          6.2130   -1.3080    3.3460 n         1 MOL     -0.305850
      8 C3          7.1860   -0.4800    2.6340 c3        1 MOL     -0.031079
      9 C4          8.0270   -1.1440    1.4690 c         1 MOL      0.568989
     10 O2          8.2160   -0.4140    0.5190 o         1 MOL     -0.532812
     11 C5          8.1420    0.0690    3.7280 c3        1 MOL     -0.374901
     12 C6          8.8700   -0.8090    4.7390 c         1 MOL      0.821549
     13 O3          9.0900   -0.2490    5.8240 o         1 MOL     -0.752936
     14 O4          9.2660   -1.9220    4.4360 o         1 MOL     -0.752936
     15 H4          6.4600   -1.5780    4.2830 hn        1 MOL      0.239096
     16 H5          6.7010    0.3420    2.1150 h1        1 MOL      0.076589
     17 H6          7.5460    0.7430    4.3420 hc        1 MOL      0.083797
     18 H7          8.9350    0.5850    3.1860 hc        1 MOL      0.083797
     19 N2          8.3090   -2.4730    1.4810 n         1 MOL     -0.420558
     20 C7          8.7030   -3.2860    0.3150 c3        1 MOL      0.420192
     21 C8          7.6770   -3.0260   -0.8420 c         1 MOL      0.285142
     22 O5          8.0310   -2.7120   -1.9960 o         1 MOL     -0.485686
     23 C9         10.1240   -2.9570   -0.1510 c3        1 MOL     -0.418543
     24 H8          8.0980   -2.9760    2.3260 hn        1 MOL      0.214082
     25 H9          8.6600   -4.3470    0.5270 h1        1 MOL     -0.017278
     26 H10        10.3230   -3.7430   -0.8700 hc        1 MOL      0.100171
     27 H11        10.0840   -2.0140   -0.6920 hc        1 MOL      0.100171
     28 H12        10.7560   -3.0930    0.7290 hc        1 MOL      0.100171
     29 N3          6.3900   -2.9140   -0.4740 n         1 MOL     -0.454716
     30 C10         5.2070   -2.3910   -1.1630 c3        1 MOL      0.713437
     31 C11         5.3170   -0.8840   -1.5660 c         1 MOL      0.262660
     32 O6          5.5760   -0.5900   -2.7220 o         1 MOL     -0.540350
     33 C12         4.8350   -3.2920   -2.3660 c3        1 MOL     -0.417125
     34 C13         3.3720   -3.0540   -2.7220 c         1 MOL      0.839233
     35 O7          2.7390   -3.7670   -3.5520 o         1 MOL     -0.771462
     36 O8          2.6980   -2.1420   -2.2240 o         1 MOL     -0.771462
     37 H13         6.2010   -3.2640    0.4540 hn        1 MOL      0.177637
     38 H14         4.3680   -2.3850   -0.4730 h1        1 MOL     -0.131571
     39 H15         4.9280   -4.3040   -1.9740 hc        1 MOL      0.061268
     40 H16         5.4140   -3.0660   -3.2590 hc        1 MOL      0.061268
     41 N4          5.2600    0.0510   -0.6640 n         1 MOL      0.199178
     42 C14         5.6500    1.4240   -0.7850 c3        1 MOL     -0.454904
     43 C15         4.5870    2.3240   -1.5350 c         1 MOL      0.657621
     44 O9          4.8440    3.4460   -1.9040 o         1 MOL     -0.585488
     45 H17         4.7570   -0.2010    0.1790 hn        1 MOL      0.088211
     46 H18         6.6170    1.3780   -1.2750 h1        1 MOL      0.154021
     47 H19         5.8190    1.9260    0.1730 h1        1 MOL      0.154021
     48 N5          3.3930    1.7840   -1.7820 n         1 MOL     -0.355789
     49 C16         2.3320    2.5580   -2.5290 c3        1 MOL     -0.075387
     50 C17         1.9430    3.8810   -1.8820 c         1 MOL      0.596746
     51 O10         1.8690    4.0010   -0.6760 o         1 MOL     -0.526750
     52 C18         1.1030    1.6390   -2.8080 c3        1 MOL     -0.095181
     53 C19         0.3250    2.1980   -4.0100 c         1 MOL      0.557774
     54 N6         -0.8580    2.6960   -3.6740 n         1 MOL     -0.725188
     55 O11         0.7280    2.2100   -5.1660 o         1 MOL     -0.588178
     56 H20         3.1840    0.8920   -1.3550 hn        1 MOL      0.192941
     57 H21         2.7800    2.7410   -3.5080 h1        1 MOL      0.057542
     58 H22         0.4150    1.5780   -1.9750 hc        1 MOL      0.117012
     59 H23         1.4530    0.6740   -3.1660 hc        1 MOL      0.117012
     60 H24        -1.0730    2.7650   -2.6890 hn        1 MOL      0.337678
     61 H25        -1.3480    3.1410   -4.4370 hn        1 MOL      0.337678
     62 N7          1.8190    4.9210   -2.7010 n         1 MOL     -0.383677
     63 C20         1.5450    6.2350   -2.1880 c3        1 MOL     -0.128289
     64 C21         0.1940    6.4520   -1.5940 c         1 MOL      0.596348
     65 O12        -0.8620    6.0830   -2.2270 o         1 MOL     -0.548169
     66 H26         1.9410    4.8740   -3.7050 hn        1 MOL      0.300718
     67 H27         1.6930    7.0040   -2.9350 h1        1 MOL      0.086131
     68 H28         2.2660    6.3900   -1.3770 h1        1 MOL      0.086131
     69 N8          0.1650    7.1540   -0.5140 n         1 MOL     -0.417895
     70 C22        -0.9830    7.5870    0.2460 c3        1 MOL     -0.153017
     71 C23        -1.6410    6.5210    1.0610 c         1 MOL      0.417600
     72 O13        -2.4110    6.8760    1.9800 o         1 MOL     -0.567466
     73 C24        -0.6030    8.7710    1.1360 c3        1 MOL      0.487574
     74 C25         0.3880    8.2670    2.1880 c3        1 MOL     -0.411625
     75 O14         0.0130    9.8340    0.4800 oh        1 MOL     -0.640455
     76 H29         1.0250    7.5290   -0.1390 hn        1 MOL      0.232330
     77 H30        -1.7570    7.9090   -0.4400 h1        1 MOL      0.134972
     78 H31        -1.5170    9.1510    1.6000 h1        1 MOL      0.035443
     79 H32         0.9240    9.5730    0.3000 ho        1 MOL      0.381898
     80 H33        -0.1600    7.7420    2.9790 hc        1 MOL      0.101465
     81 H34         1.2120    7.6550    1.8250 hc        1 MOL      0.101465
     82 H35         0.8190    9.0910    2.7640 hc        1 MOL      0.101465
     83 N9         -1.3960    5.2070    0.8390 n         1 MOL     -0.043079
     84 C26        -2.0440    4.0130    1.3890 c3        1 MOL     -0.029716
     85 C27        -2.0930    2.9990    0.2610 c         1 MOL      0.344352
     86 O15        -1.5190    3.1700   -0.8170 o         1 MOL     -0.351931
     87 C28        -1.2830    3.5110    2.6340 c3        1 MOL      0.055577
     88 C29         0.0790    2.8560    2.3730 c3        1 MOL     -0.052471
     89 C30        -1.3920    4.5400    3.7690 c3        1 MOL     -0.290697
     90 C31         0.4990    1.9020    3.5340 c3        1 MOL     -0.257707
     91 H36        -0.8930    5.0390   -0.0270 hn        1 MOL      0.021932
     92 H37        -3.0610    4.3180    1.6440 h1        1 MOL      0.071079
     93 H38        -1.7940    2.6620    3.0860 hc        1 MOL      0.022196
     94 H39         0.7430    3.7240    2.3980 hc        1 MOL      0.068446
     95 H40         0.0860    2.3530    1.4080 hc        1 MOL      0.068446
     96 H41        -0.6460    5.3180    3.6820 hc        1 MOL      0.081221
     97 H42        -2.3780    5.0020    3.8310 hc        1 MOL      0.081221
     98 H43        -1.3320    3.9280    4.6730 hc        1 MOL      0.081221
     99 H44         0.4600    2.3960    4.5010 hc        1 MOL      0.074390
    100 H45        -0.1120    1.0030    3.4650 hc        1 MOL      0.074390
    101 H46         1.5050    1.5510    3.2930 hc        1 MOL      0.074390
    102 N10        -2.6520    1.8780    0.6360 n         1 MOL     -0.425216
    103 C32        -2.7490    0.6930   -0.1600 c3        1 MOL      0.096063
    104 C33        -4.0240   -0.2350    0.0460 c         1 MOL      0.556558
    105 O16        -3.9780   -1.4490    0.0450 o         1 MOL     -0.429261
    106 C34        -1.3400   -0.0480    0.1040 c3        1 MOL     -0.064820
    107 C35        -0.9180   -0.8680   -1.0650 c         1 MOL      0.461148
    108 O17        -1.4870   -0.7470   -2.1400 o         1 MOL     -0.676681
    109 O18         0.0640   -1.5890   -0.8450 o         1 MOL     -0.676681
    110 H47        -3.1550    1.9920    1.4970 hn        1 MOL      0.236892
    111 H48        -2.7870    1.0830   -1.1840 h1        1 MOL      0.044846
    112 H49        -1.3930   -0.6460    1.0180 hc        1 MOL      0.064787
    113 H50        -0.4870    0.5920    0.2760 hc        1 MOL      0.064787
    114 N11        -5.1550    0.4330    0.4310 n         1 MOL     -0.560623
    115 C36        -6.4750   -0.1790    0.3050 c3        1 MOL      0.331828
    116 C37        -6.4710   -1.4810    1.1600 c         1 MOL      0.103115
    117 O19        -6.1600   -1.3690    2.3900 o         1 MOL     -0.438315
    118 C38        -7.5170    0.8810    0.6370 c3        1 MOL     -0.165440
    119 C39        -8.9920    0.6240    0.2750 ca        1 MOL      0.096856
    120 C40        -9.5100    1.0620   -0.9430 ca        1 MOL     -0.164031
    121 C41        -9.7930   -0.1210    1.1340 ca        1 MOL     -0.164031
    122 C42       -10.8170    0.7830   -1.3290 ca        1 MOL     -0.085980
    123 C43       -11.1220   -0.3660    0.7970 ca        1 MOL     -0.085980
    124 C44       -11.6170    0.1010   -0.4200 ca        1 MOL     -0.142398
    125 H51        -5.0020    1.4310    0.3740 hn        1 MOL      0.284041
    126 H52        -6.5400   -0.4290   -0.7510 h1        1 MOL     -0.023066
    127 H53        -7.2840    1.8560    0.2140 hc        1 MOL      0.077346
    128 H54        -7.4490    1.1120    1.7030 hc        1 MOL      0.077346
    129 H55        -8.7960    1.5280   -1.6090 ha        1 MOL      0.115075
    130 H56        -9.4320   -0.4420    2.0940 ha        1 MOL      0.115075
    131 H57       -11.2000    1.0570   -2.3030 ha        1 MOL      0.106865
    132 H58       -11.7350   -0.8870    1.5200 ha        1 MOL      0.106865
    133 H59       -12.6240   -0.2150   -0.6630 ha        1 MOL      0.099958
    134 N12        -6.7580   -2.6860    0.6470 n         1 MOL      0.050035
    135 C45        -6.7900   -3.9600    1.3680 c3        1 MOL      0.174870
    136 C46        -5.5170   -4.4140    2.1070 c         1 MOL      0.192122
    137 O20        -5.6590   -4.9310    3.2170 o         1 MOL     -0.510468
    138 C47        -7.2500   -5.0370    0.3490 c3        1 MOL     -0.020093
    139 C48        -7.9380   -4.2710   -0.6820 c3        1 MOL     -0.146515
    140 C49        -7.1740   -3.0040   -0.6910 c3        1 MOL     -0.119536
    141 H60        -7.5190   -3.9480    2.1760 h1        1 MOL      0.034091
    142 H61        -6.3920   -5.5100   -0.1170 hc        1 MOL      0.031963
    143 H62        -7.9240   -5.7580    0.8210 hc        1 MOL      0.031963
    144 H63        -7.8350   -4.8150   -1.6170 hc        1 MOL      0.058241
    145 H64        -8.9570   -3.9780   -0.4120 hc        1 MOL      0.058241
    146 H65        -6.2880   -3.1960   -1.2920 h1        1 MOL      0.073962
    147 H66        -7.7800   -2.1720   -1.0630 h1        1 MOL      0.073962
    148 N13        -4.3370   -4.0710    1.6260 n         1 MOL     -0.029805
    149 C50        -3.0320   -4.4640    2.2890 c3        1 MOL     -0.324204
    150 C51        -2.7330   -3.5230    3.4640 c         1 MOL      0.499016
    151 O21        -1.8480   -3.7610    4.2160 o         1 MOL     -0.535324
    152 C52        -2.0120   -4.1930    1.1220 c3        1 MOL      0.029322
    153 C53        -1.9340   -5.2290    0.0670 c3        1 MOL     -0.164244
    154 C54        -1.2130   -4.7080   -1.1660 c         1 MOL      0.748831
    155 O22         0.0060   -4.8940   -1.3560 o         1 MOL     -0.792078
    156 O23        -1.8050   -4.0550   -2.0450 o         1 MOL     -0.792078
    157 H67        -4.3460   -3.5760    0.7380 hn        1 MOL      0.197729
    158 H68        -3.0950   -5.4800    2.6740 h1        1 MOL      0.181951
    159 H69        -0.9700   -4.1790    1.4510 hc        1 MOL      0.084160
    160 H70        -2.2300   -3.2270    0.6560 hc        1 MOL      0.084160
    161 H71        -2.9000   -5.6580   -0.1950 hc        1 MOL      0.020868
    162 H72        -1.2910   -6.0350    0.4380 hc        1 MOL      0.020868
    163 N14        -3.5290   -2.4410    3.6240 n         1 MOL     -0.095951
    164 C55        -3.3870   -1.4920    4.6980 c3        1 MOL     -0.242043
    165 H73        -4.3330   -1.4040    5.2320 h1        1 MOL      0.088243
    166 H74        -2.6130   -1.8350    5.3860 h1        1 MOL      0.088243
    167 H75        -3.1080   -0.5200    4.2910 h1        1 MOL      0.088243
    168 H76        -4.2960   -2.2960    2.9780 hn        1 MOL      0.140439
    169 Ca1         0.3520   -2.8140   -3.0940 Ca        1 MOL      1.768965
    170 O24         0.4420   -4.6370   -5.1060 oh        1 MOL     -0.798661
    171 H77         0.2220   -5.5390   -4.8930 ho        1 MOL      0.392171
    172 H78         0.3720   -4.5960   -6.0630 ho        1 MOL      0.392171
    173 O25        -2.0390   -2.5940   -4.6360 oh        1 MOL     -0.798661
    174 H79        -2.8560   -2.4520   -4.1560 ho        1 MOL      0.392171
    175 H80        -2.2950   -3.1170   -5.3910 ho        1 MOL      0.392171
    176 O26         1.2810   -1.1890   -5.0350 oh        1 MOL     -0.798661
    177 H81         2.1640   -1.2180   -5.3940 ho        1 MOL      0.392171
    178 H82         0.8650   -0.4440   -5.4790 ho        1 MOL      0.392171
@<TRIPOS>BOND
     1    1    2 1   
     2    1    4 1   
     3    1    5 1   
     4    1    6 1   
     5    2    3 2   
     6    2    7 1   
     7    7    8 1   
     8    7   15 1   
     9    8    9 1   
    10    8   11 1   
    11    8   16 1   
    12    9   10 2   
    13    9   19 1   
    14   11   12 1   
    15   11   17 1   
    16   11   18 1   
    17   12   13 1   
    18   12   14 1   
    19   19   20 1   
    20   19   24 1   
    21   20   21 1   
    22   20   23 1   
    23   20   25 1   
    24   21   22 2   
    25   21   29 1   
    26   23   26 1   
    27   23   27 1   
    28   23   28 1   
    29   29   30 1   
    30   29   37 1   
    31   30   31 1   
    32   30   33 1   
    33   30   38 1   
    34   31   32 2   
    35   31   41 1   
    36   33   34 1   
    37   33   39 1   
    38   33   40 1   
    39   34   35 1   
    40   34   36 1   
    41   41   42 1   
    42   41   45 1   
    43   42   43 1   
    44   42   46 1   
    45   42   47 1   
    46   43   44 2   
    47   43   48 1   
    48   48   49 1   
    49   48   56 1   
    50   49   50 1   
    51   49   52 1   
    52   49   57 1   
    53   50   51 2   
    54   50   62 1   
    55   52   53 1   
    56   52   58 1   
    57   52   59 1   
    58   53   54 1   
    59   53   55 2   
    60   54   60 1   
    61   54   61 1   
    62   62   63 1   
    63   62   66 1   
    64   63   64 1   
    65   63   67 1   
    66   63   68 1   
    67   64   65 2   
    68   64   69 1   
    69   69   70 1   
    70   69   76 1   
    71   70   71 1   
    72   70   73 1   
    73   70   77 1   
    74   71   72 2   
    75   71   83 1   
    76   73   74 1   
    77   73   75 1   
    78   73   78 1   
    79   74   80 1   
    80   74   81 1   
    81   74   82 1   
    82   75   79 1   
    83   83   84 1   
    84   83   91 1   
    85   84   85 1   
    86   84   87 1   
    87   84   92 1   
    88   85   86 2   
    89   85  102 1   
    90   87   88 1   
    91   87   89 1   
    92   87   93 1   
    93   88   90 1   
    94   88   94 1   
    95   88   95 1   
    96   89   96 1   
    97   89   97 1   
    98   89   98 1   
    99   90   99 1   
   100   90  100 1   
   101   90  101 1   
   102  102  103 1   
   103  102  110 1   
   104  103  104 1   
   105  103  106 1   
   106  103  111 1   
   107  104  105 2   
   108  104  114 1   
   109  106  107 1   
   110  106  112 1   
   111  106  113 1   
   112  107  108 1   
   113  107  109 1   
   114  114  115 1   
   115  114  125 1   
   116  115  116 1   
   117  115  118 1   
   118  115  126 1   
   119  116  117 2   
   120  116  134 1   
   121  118  119 1   
   122  118  127 1   
   123  118  128 1   
   124  119  120 ar  
   125  119  121 ar  
   126  120  122 ar  
   127  120  129 1   
   128  121  123 ar  
   129  121  130 1   
   130  122  124 ar  
   131  122  131 1   
   132  123  124 ar  
   133  123  132 1   
   134  124  133 1   
   135  134  135 1   
   136  134  140 1   
   137  135  136 1   
   138  135  138 1   
   139  135  141 1   
   140  136  137 2   
   141  136  148 1   
   142  138  139 1   
   143  138  142 1   
   144  138  143 1   
   145  139  140 1   
   146  139  144 1   
   147  139  145 1   
   148  140  146 1   
   149  140  147 1   
   150  148  149 1   
   151  148  157 1   
   152  149  150 1   
   153  149  152 1   
   154  149  158 1   
   155  150  151 2   
   156  150  163 1   
   157  152  153 1   
   158  152  159 1   
   159  152  160 1   
   160  153  154 1   
   161  153  161 1   
   162  153  162 1   
   163  154  155 1   
   164  154  156 1   
   165  163  164 1   
   166  163  168 1   
   167  164  165 1   
   168  164  166 1   
   169  164  167 1   
   170  170  171 1   
   171  170  172 1   
   172  173  174 1   
   173  173  175 1   
   174  176  177 1   
   175  176  178 1   
@<TRIPOS>SUBSTRUCTURE
     1 MOL         1 TEMP              0 ****  ****    0 ROOT
