@<TRIPOS>MOLECULE
MOL
  178   175     1     0     0
SMALL
resp


@<TRIPOS>ATOM
      1 C1         -1.0300   -6.4150   -2.9790 c3        1 MOL     -0.437896
      2 C2         -2.4260   -6.3930   -2.5150 c         1 MOL      0.788027
      3 O1         -2.8300   -7.2700   -1.7730 o         1 MOL     -0.626245
      4 H1         -0.5480   -5.4720   -2.7230 hc        1 MOL      0.103095
      5 H2         -0.4990   -7.2370   -2.4960 hc        1 MOL      0.103095
      6 H3         -1.0070   -6.5530   -4.0600 hc        1 MOL      0.103095
      7 N1         -3.2360   -5.4670   -2.9790 n         1 MOL     -0.557803
      8 C3         -4.6240   -5.2290   -2.3730 c3        1 MOL     -0.004982
      9 C4         -4.5360   -4.2060   -1.2000 c         1 MOL      0.452200
     10 O2         -4.0560   -3.0690   -1.2740 o         1 MOL     -0.516541
     11 C5         -5.4900   -4.7700   -3.5580 c3        1 MOL     -0.042723
     12 C6         -6.9710   -4.6330   -3.1900 c         1 MOL      0.662599
     13 O3         -7.3350   -3.7900   -2.3690 o         1 MOL     -0.722353
     14 O4         -7.7890   -5.3080   -3.9050 o         1 MOL     -0.722353
     15 H4         -2.9240   -4.8990   -3.7530 hn        1 MOL      0.276853
     16 H5         -5.0270   -6.1880   -2.0270 h1        1 MOL      0.098803
     17 H6         -5.4820   -5.4510   -4.4050 hc        1 MOL      0.008273
     18 H7         -5.2160   -3.7740   -3.9160 hc        1 MOL      0.008273
     19 N2         -5.0800   -4.5600   -0.0490 n         1 MOL     -0.424523
     20 C7         -5.1370   -3.7990    1.1520 c3        1 MOL      0.476789
     21 C8         -3.8220   -3.9540    1.9790 c         1 MOL      0.320869
     22 O5         -3.0110   -4.8060    1.6300 o         1 MOL     -0.535446
     23 C9         -6.4280   -4.2410    1.8680 c3        1 MOL     -0.380009
     24 H8         -5.6750   -5.3710   -0.1040 hn        1 MOL      0.253516
     25 H9         -5.3390   -2.7790    0.8280 h1        1 MOL      0.057876
     26 H10        -6.3850   -3.9800    2.9180 hc        1 MOL      0.083448
     27 H11        -7.2420   -3.6480    1.4420 hc        1 MOL      0.083448
     28 H12        -6.5590   -5.3020    1.6440 hc        1 MOL      0.083448
     29 N3         -3.4530   -3.0280    2.8720 n         1 MOL     -0.314723
     30 C10        -4.3390   -1.9220    3.2940 c3        1 MOL     -0.045866
     31 C11        -4.3650   -0.8000    2.2680 c         1 MOL      0.506014
     32 O6         -3.4400   -0.5760    1.4370 o         1 MOL     -0.521539
     33 C12        -3.9070   -1.4350    4.6600 c3        1 MOL     -0.071538
     34 C13        -2.4780   -1.0360    4.7430 c         1 MOL      0.667434
     35 O7         -2.0450   -0.8090    5.8860 o         1 MOL     -0.682516
     36 O8         -1.7190   -0.8400    3.7290 o         1 MOL     -0.682516
     37 H13        -2.5070   -3.1160    3.2250 hn        1 MOL      0.246378
     38 H14        -5.3720   -2.2410    3.3700 h1        1 MOL      0.053361
     39 H15        -4.1040   -2.2110    5.3950 hc        1 MOL      0.021054
     40 H16        -4.5340   -0.5900    4.9560 hc        1 MOL      0.021054
     41 N4         -5.3910    0.0520    2.4180 n         1 MOL     -0.643525
     42 C14        -5.4990    1.3430    1.7100 c3        1 MOL      0.442470
     43 C15        -6.5020    1.4290    0.4950 c         1 MOL      0.286083
     44 O9         -6.9690    0.3840    0.0010 o         1 MOL     -0.444459
     45 H17        -6.1610   -0.1240    3.0390 hn        1 MOL      0.319418
     46 H18        -4.4930    1.7160    1.5140 h1        1 MOL      0.006067
     47 H19        -5.8760    2.0820    2.4210 h1        1 MOL      0.006067
     48 N5         -6.7870    2.5710   -0.1020 n         1 MOL     -0.504486
     49 C16        -6.1720    3.9280    0.1080 c3        1 MOL      0.166726
     50 C17        -5.5920    4.5460   -1.2190 c         1 MOL      0.603835
     51 O10        -5.8450    5.6690   -1.5850 o         1 MOL     -0.523011
     52 C18        -7.2650    4.7350    0.8480 c3        1 MOL     -0.373912
     53 C19        -7.5450    4.3930    2.2560 c         1 MOL      0.736981
     54 N6         -8.6850    3.8620    2.6750 n         1 MOL     -0.834153
     55 O11        -6.6580    4.5450    3.1210 o         1 MOL     -0.573887
     56 H20        -7.4420    2.4990   -0.8650 hn        1 MOL      0.314715
     57 H21        -5.2630    3.7890    0.6840 h1        1 MOL      0.012671
     58 H22        -8.1650    4.7010    0.2200 hc        1 MOL      0.096663
     59 H23        -6.9570    5.7830    0.8300 hc        1 MOL      0.096663
     60 H24        -9.2630    3.4910    1.9310 hn        1 MOL      0.383161
     61 H25        -8.7290    3.6350    3.6590 hn        1 MOL      0.383161
     62 N7         -4.9090    3.6990   -1.9610 n         1 MOL     -0.465275
     63 C20        -4.4210    4.0440   -3.3440 c3        1 MOL     -0.042712
     64 C21        -3.1130    4.7270   -3.3240 c         1 MOL      0.575776
     65 O12        -2.8190    5.6180   -4.1130 o         1 MOL     -0.544078
     66 H26        -4.7150    2.7840   -1.5870 hn        1 MOL      0.345090
     67 H27        -5.0950    4.7730   -3.8070 h1        1 MOL      0.086532
     68 H28        -4.3890    3.1570   -3.9770 h1        1 MOL      0.086532
     69 N8         -2.2040    4.3660   -2.3960 n         1 MOL     -0.549520
     70 C22        -0.8360    4.8870   -2.2080 c3        1 MOL      0.172791
     71 C23         0.2190    3.7300   -2.0380 c         1 MOL      0.673365
     72 O13        -0.1230    2.5520   -1.8630 o         1 MOL     -0.583004
     73 C24        -0.7310    6.0030   -1.1130 c3        1 MOL      0.301079
     74 C25        -1.7180    7.1670   -1.2100 c3        1 MOL     -0.444202
     75 O14        -0.8690    5.4880    0.1440 oh        1 MOL     -0.613883
     76 H29        -2.4850    3.6310   -1.7670 hn        1 MOL      0.339702
     77 H30        -0.5440    5.3840   -3.1380 h1        1 MOL      0.020522
     78 H31         0.3350    6.2500   -1.1050 h1        1 MOL     -0.033261
     79 H32        -0.4390    6.0680    0.7700 ho        1 MOL      0.433523
     80 H33        -1.3950    7.8950   -1.9500 hc        1 MOL      0.117062
     81 H34        -2.7270    6.8120   -1.4180 hc        1 MOL      0.117062
     82 H35        -1.6920    7.6960   -0.2600 hc        1 MOL      0.117062
     83 N9          1.5100    4.0930   -2.2570 n         1 MOL     -0.642639
     84 C26         2.6490    3.3610   -1.7440 c3        1 MOL     -0.095312
     85 C27         2.7830    3.7320   -0.2290 c         1 MOL      0.326251
     86 O15         2.7470    4.9280    0.0650 o         1 MOL     -0.546312
     87 C28         3.9700    3.6170   -2.5280 c3        1 MOL      0.108327
     88 C29         5.2400    2.8590   -2.0480 c3        1 MOL     -0.003618
     89 C30         3.7870    3.2550   -3.9830 c3        1 MOL     -0.246228
     90 C31         6.5040    3.3280   -2.7800 c3        1 MOL     -0.002650
     91 H36         1.6030    5.0870   -2.4350 hn        1 MOL      0.330744
     92 H37         2.4790    2.2800   -1.7780 h1        1 MOL      0.310752
     93 H38         4.2510    4.6730   -2.5500 hc        1 MOL      0.049853
     94 H39         5.1940    1.7800   -2.1700 hc        1 MOL     -0.009911
     95 H40         5.4180    3.1420   -1.0030 hc        1 MOL     -0.009911
     96 H41         4.6930    3.4820   -4.5450 hc        1 MOL      0.055957
     97 H42         3.4990    2.2340   -4.2300 hc        1 MOL      0.055957
     98 H43         3.0880    3.9490   -4.4560 hc        1 MOL      0.055957
     99 H44         6.6260    4.3970   -2.9280 hc        1 MOL     -0.006092
    100 H45         7.3700    2.9540   -2.2430 hc        1 MOL     -0.006092
    101 H46         6.5830    2.8500   -3.7640 hc        1 MOL     -0.006092
    102 N10         2.7790    2.8170    0.6930 n         1 MOL     -0.053146
    103 C32         2.9640    2.9160    2.1480 c3        1 MOL      0.057404
    104 C33         3.9500    1.8820    2.6560 c         1 MOL      0.371763
    105 O16         4.2230    1.9910    3.8610 o         1 MOL     -0.517057
    106 C34         1.6840    2.8720    2.9390 c3        1 MOL     -0.035604
    107 C35         0.8490    1.6400    2.4810 c         1 MOL      0.707614
    108 O17        -0.1390    1.7890    1.7230 o         1 MOL     -0.759603
    109 O18         1.1910    0.5110    2.9040 o         1 MOL     -0.759603
    110 H47         2.8160    1.8890    0.3210 hn        1 MOL      0.148528
    111 H48         3.3950    3.9020    2.3550 h1        1 MOL      0.047058
    112 H49         1.1990    3.7980    2.6370 hc        1 MOL      0.019516
    113 H50         1.8940    2.9000    4.0120 hc        1 MOL      0.019516
    114 N11         4.4490    0.9080    1.9000 n         1 MOL     -0.315724
    115 C36         5.7080    0.1710    1.9880 c3        1 MOL      0.186728
    116 C37         5.7490   -1.1240    1.1010 c         1 MOL      0.334080
    117 O19         6.3690   -1.1120   -0.0150 o         1 MOL     -0.465565
    118 C38         6.8370    1.1810    1.5660 c3        1 MOL     -0.256406
    119 C39         8.2300    0.6970    1.6210 ca        1 MOL      0.187168
    120 C40         9.1150    1.0100    0.5740 ca        1 MOL     -0.195140
    121 C41         8.6470   -0.0570    2.7290 ca        1 MOL     -0.195140
    122 C42        10.4560    0.5860    0.6660 ca        1 MOL     -0.100404
    123 C43         9.9350   -0.4810    2.8270 ca        1 MOL     -0.100404
    124 C44        10.8450   -0.1650    1.8240 ca        1 MOL     -0.154090
    125 H51         3.9310    0.7610    1.0410 hn        1 MOL      0.138892
    126 H52         5.8310   -0.1670    3.0200 h1        1 MOL      0.031714
    127 H53         6.8250    1.9430    2.3570 hc        1 MOL      0.092951
    128 H54         6.5620    1.6600    0.6230 hc        1 MOL      0.092951
    129 H55         8.7570    1.5700   -0.2700 ha        1 MOL      0.127123
    130 H56         7.9210   -0.3220    3.4810 ha        1 MOL      0.127123
    131 H57        11.2270    0.8720   -0.0320 ha        1 MOL      0.101051
    132 H58        10.2610   -1.0070    3.7120 ha        1 MOL      0.101051
    133 H59        11.8910   -0.4300    1.9350 ha        1 MOL      0.095146
    134 N12         4.9840   -2.1580    1.5500 n         1 MOL     -0.151208
    135 C45         4.9940   -3.5120    0.9280 c3        1 MOL     -0.100143
    136 C46         4.7130   -3.6020   -0.6330 c         1 MOL      0.233651
    137 O20         5.1840   -4.5190   -1.3150 o         1 MOL     -0.465661
    138 C47         4.0280   -4.3300    1.7500 c3        1 MOL      0.098398
    139 C48         3.8460   -3.6450    3.0910 c3        1 MOL     -0.244839
    140 C49         4.0160   -2.1700    2.6900 c3        1 MOL      0.066722
    141 H60         5.9770   -3.8850    1.1950 h1        1 MOL      0.107050
    142 H61         3.0910   -4.4200    1.2140 hc        1 MOL      0.025355
    143 H62         4.3860   -5.3580    1.8430 hc        1 MOL      0.025355
    144 H63         2.8230   -3.8790    3.3750 hc        1 MOL      0.072034
    145 H64         4.5480   -3.9420    3.8730 hc        1 MOL      0.072034
    146 H65         3.0710   -1.7770    2.2950 h1        1 MOL      0.085989
    147 H66         4.4190   -1.5580    3.4930 h1        1 MOL      0.085989
    148 N13         4.1220   -2.5770   -1.2010 n         1 MOL     -0.001975
    149 C50         3.9820   -2.3760   -2.5760 c3        1 MOL     -0.145675
    150 C51         5.3390   -2.5160   -3.3330 c         1 MOL      0.440729
    151 O21         5.4750   -3.3180   -4.3180 o         1 MOL     -0.545448
    152 C52         3.4380   -0.9910   -3.0340 c3        1 MOL      0.087054
    153 C53         1.9850   -0.6270   -2.5830 c3        1 MOL     -0.202691
    154 C54         1.9860   -0.5280   -0.9860 c         1 MOL      0.323581
    155 O22         1.0440   -1.1640   -0.3930 o         1 MOL     -0.582371
    156 O23         2.9110    0.0750   -0.3550 o         1 MOL     -0.582371
    157 H67         3.9250   -1.8060   -0.5800 hn        1 MOL      0.271829
    158 H68         3.4150   -3.1740   -3.0480 h1        1 MOL      0.085928
    159 H69         3.4590   -0.8950   -4.1200 hc        1 MOL      0.002880
    160 H70         4.0790   -0.1790   -2.6900 hc        1 MOL      0.002880
    161 H71         1.3570   -1.4920   -2.8180 hc        1 MOL      0.070380
    162 H72         1.6350    0.2390   -3.1640 hc        1 MOL      0.070380
    163 N14         6.2770   -1.6220   -2.9800 n         1 MOL     -0.176060
    164 C55         7.6470   -1.5320   -3.4710 c3        1 MOL     -0.279028
    165 H73         8.0810   -0.5800   -3.1630 h1        1 MOL      0.108596
    166 H74         8.2360   -2.3500   -3.0570 h1        1 MOL      0.108596
    167 H75         7.6500   -1.5960   -4.5590 h1        1 MOL      0.108596
    168 H76         6.0340   -1.0740   -2.1740 hn        1 MOL      0.235581
    169 Ca1        -0.5850   -0.7530    1.4040 Ca        1 MOL      1.713959
    170 O24        -1.5780   -2.4790   -0.2840 oh        1 MOL     -0.879516
    171 H77        -2.4690   -2.5130   -0.6310 ho        1 MOL      0.426200
    172 H78        -1.1860   -3.3260   -0.5180 ho        1 MOL      0.426200
    173 O25        -1.2910    0.2160   -1.1710 oh        1 MOL     -0.879516
    174 H79        -0.6290   -0.4590   -1.3570 ho        1 MOL      0.426200
    175 H80        -0.9010    1.0270   -1.5100 ho        1 MOL      0.426200
    176 O26        -0.1250   -3.1960    2.0960 oh        1 MOL     -0.879516
    177 H81        -0.3130   -4.0420    1.7040 ho        1 MOL      0.426200
    178 H82         0.0970   -3.3950    3.0090 ho        1 MOL      0.426200
@<TRIPOS>BOND
     1    1    2 1   
     2    1    4 1   
     3    1    5 1   
     4    1    6 1   
     5    2    3 2   
     6    2    7 1   
     7    7    8 1   
     8    7   15 1   
     9    8    9 1   
    10    8   11 1   
    11    8   16 1   
    12    9   10 2   
    13    9   19 1   
    14   11   12 1   
    15   11   17 1   
    16   11   18 1   
    17   12   13 1   
    18   12   14 1   
    19   19   20 1   
    20   19   24 1   
    21   20   21 1   
    22   20   23 1   
    23   20   25 1   
    24   21   22 2   
    25   21   29 1   
    26   23   26 1   
    27   23   27 1   
    28   23   28 1   
    29   29   30 1   
    30   29   37 1   
    31   30   31 1   
    32   30   33 1   
    33   30   38 1   
    34   31   32 2   
    35   31   41 1   
    36   33   34 1   
    37   33   39 1   
    38   33   40 1   
    39   34   35 1   
    40   34   36 1   
    41   41   42 1   
    42   41   45 1   
    43   42   43 1   
    44   42   46 1   
    45   42   47 1   
    46   43   44 2   
    47   43   48 1   
    48   48   49 1   
    49   48   56 1   
    50   49   50 1   
    51   49   52 1   
    52   49   57 1   
    53   50   51 2   
    54   50   62 1   
    55   52   53 1   
    56   52   58 1   
    57   52   59 1   
    58   53   54 1   
    59   53   55 2   
    60   54   60 1   
    61   54   61 1   
    62   62   63 1   
    63   62   66 1   
    64   63   64 1   
    65   63   67 1   
    66   63   68 1   
    67   64   65 2   
    68   64   69 1   
    69   69   70 1   
    70   69   76 1   
    71   70   71 1   
    72   70   73 1   
    73   70   77 1   
    74   71   72 2   
    75   71   83 1   
    76   73   74 1   
    77   73   75 1   
    78   73   78 1   
    79   74   80 1   
    80   74   81 1   
    81   74   82 1   
    82   75   79 1   
    83   83   84 1   
    84   83   91 1   
    85   84   85 1   
    86   84   87 1   
    87   84   92 1   
    88   85   86 2   
    89   85  102 1   
    90   87   88 1   
    91   87   89 1   
    92   87   93 1   
    93   88   90 1   
    94   88   94 1   
    95   88   95 1   
    96   89   96 1   
    97   89   97 1   
    98   89   98 1   
    99   90   99 1   
   100   90  100 1   
   101   90  101 1   
   102  102  103 1   
   103  102  110 1   
   104  103  104 1   
   105  103  106 1   
   106  103  111 1   
   107  104  105 2   
   108  104  114 1   
   109  106  107 1   
   110  106  112 1   
   111  106  113 1   
   112  107  108 1   
   113  107  109 1   
   114  114  115 1   
   115  114  125 1   
   116  115  116 1   
   117  115  118 1   
   118  115  126 1   
   119  116  117 2   
   120  116  134 1   
   121  118  119 1   
   122  118  127 1   
   123  118  128 1   
   124  119  120 ar  
   125  119  121 ar  
   126  120  122 ar  
   127  120  129 1   
   128  121  123 ar  
   129  121  130 1   
   130  122  124 ar  
   131  122  131 1   
   132  123  124 ar  
   133  123  132 1   
   134  124  133 1   
   135  134  135 1   
   136  134  140 1   
   137  135  136 1   
   138  135  138 1   
   139  135  141 1   
   140  136  137 2   
   141  136  148 1   
   142  138  139 1   
   143  138  142 1   
   144  138  143 1   
   145  139  140 1   
   146  139  144 1   
   147  139  145 1   
   148  140  146 1   
   149  140  147 1   
   150  148  149 1   
   151  148  157 1   
   152  149  150 1   
   153  149  152 1   
   154  149  158 1   
   155  150  151 2   
   156  150  163 1   
   157  152  153 1   
   158  152  159 1   
   159  152  160 1   
   160  153  154 1   
   161  153  161 1   
   162  153  162 1   
   163  154  155 1   
   164  154  156 1   
   165  163  164 1   
   166  163  168 1   
   167  164  165 1   
   168  164  166 1   
   169  164  167 1   
   170  170  171 1   
   171  170  172 1   
   172  173  174 1   
   173  173  175 1   
   174  176  177 1   
   175  176  178 1   
@<TRIPOS>SUBSTRUCTURE
     1 MOL         1 TEMP              0 ****  ****    0 ROOT
