@<TRIPOS>MOLECULE
MOL
  189   185     1     0     0
SMALL
resp


@<TRIPOS>ATOM
      1 C1          3.7710    3.9050   -3.6920 c3        1 MOL     -0.376900
      2 C2          4.6250    3.1560   -2.5910 c         1 MOL      0.727369
      3 O1          4.1320    2.7230   -1.5690 o         1 MOL     -0.561918
      4 H1          2.9180    3.2870   -3.9720 hc        1 MOL      0.095140
      5 H2          3.4150    4.8550   -3.2930 hc        1 MOL      0.095140
      6 H3          4.3900    4.0880   -4.5710 hc        1 MOL      0.095140
      7 N1          5.8950    2.8340   -2.9410 n         1 MOL     -0.763656
      8 C3          6.7530    1.8190   -2.2950 c3        1 MOL      0.388850
      9 C4          5.9810    0.5740   -1.8700 c         1 MOL      0.274708
     10 O2          5.7610    0.3850   -0.6580 o         1 MOL     -0.547002
     11 C5          7.6630    2.4680   -1.2300 c3        1 MOL     -0.282072
     12 C6          7.0090    3.5830   -0.4300 c         1 MOL      0.862554
     13 O3          6.3020    3.3210    0.5080 o         1 MOL     -0.763370
     14 O4          7.3250    4.7630   -0.6730 o         1 MOL     -0.763370
     15 H4          6.1930    3.2020   -3.8260 hn        1 MOL      0.346827
     16 H5          7.3810    1.4450   -3.0940 h1        1 MOL     -0.008170
     17 H6          8.5960    2.8070   -1.6910 hc        1 MOL      0.050137
     18 H7          8.0190    1.7100   -0.5400 hc        1 MOL      0.050137
     19 N2          5.4560   -0.1660   -2.8300 n         1 MOL     -0.303321
     20 C7          4.9650   -1.5870   -2.8380 c3        1 MOL      0.011676
     21 C8          5.9190   -2.6690   -2.2570 c         1 MOL      0.345437
     22 O5          6.3810   -3.4990   -3.0030 o         1 MOL     -0.553744
     23 C9          3.4570   -1.7430   -2.3450 c3        1 MOL      0.181703
     24 C10         2.7700   -3.0950   -2.7020 c3        1 MOL      0.083168
     25 C11         2.4940   -0.5570   -2.8130 c3        1 MOL     -0.406321
     26 C12         2.4260   -3.4460   -4.1090 c3        1 MOL     -0.281648
     27 H8          5.4650    0.2250   -3.7560 hn        1 MOL      0.243790
     28 H9          4.9220   -1.8170   -3.9010 h1        1 MOL      0.043909
     29 H10         3.3790   -1.5100   -1.2750 hc        1 MOL     -0.061869
     30 H11         1.8860   -3.1850   -2.0820 hc        1 MOL     -0.001119
     31 H12         3.4250   -3.8890   -2.3460 hc        1 MOL     -0.001119
     32 H13         2.9190    0.3470   -2.3650 hc        1 MOL      0.097213
     33 H14         2.5330   -0.4490   -3.8950 hc        1 MOL      0.097213
     34 H15         1.4910   -0.7670   -2.4270 hc        1 MOL      0.097213
     35 H16         1.5640   -2.8340   -4.3580 hc        1 MOL      0.058830
     36 H17         3.2460   -3.3150   -4.8220 hc        1 MOL      0.058830
     37 H18         2.1770   -4.5070   -4.0300 hc        1 MOL      0.058830
     38 N3          6.3090   -2.5780   -1.0290 n         1 MOL     -0.007245
     39 C13         7.2680   -3.4920   -0.3820 c3        1 MOL     -0.040165
     40 C14         6.7000   -4.8910    0.0690 c         1 MOL      0.620198
     41 O6          7.2410   -5.9490   -0.1990 o         1 MOL     -0.583470
     42 C15         7.9150   -2.7510    0.8420 c3        1 MOL     -0.296795
     43 C16         8.6180   -1.3930    0.5500 c         1 MOL      0.755732
     44 O7          9.3390   -1.3450   -0.4770 o         1 MOL     -0.712168
     45 O8          8.4630   -0.4840    1.3840 o         1 MOL     -0.712168
     46 H19         6.0400   -1.7520   -0.5110 hn        1 MOL      0.266601
     47 H20         7.9720   -3.6420   -1.2050 h1        1 MOL      0.066850
     48 H21         8.5980   -3.3890    1.3930 hc        1 MOL      0.084034
     49 H22         7.1560   -2.3700    1.5240 hc        1 MOL      0.084034
     50 N4          5.4900   -5.0210    0.6990 n         1 MOL     -0.560026
     51 C17         4.5250   -3.9990    1.2510 c3        1 MOL      0.047720
     52 C18         4.7740   -3.4430    2.7090 c         1 MOL      0.491612
     53 O9          5.7930   -3.7320    3.4120 o         1 MOL     -0.563659
     54 H23         5.1700   -5.9740    0.8580 hn        1 MOL      0.310889
     55 H24         3.4770   -4.2920    1.1450 h1        1 MOL      0.031447
     56 H25         4.6420   -3.0960    0.6670 h1        1 MOL      0.031447
     57 N5          3.8700   -2.6690    3.3470 n         1 MOL     -0.465201
     58 C19         2.5720   -2.0650    2.9740 c3        1 MOL      0.127684
     59 C20         2.6410   -1.2980    1.5990 c         1 MOL      0.139255
     60 O10         3.7220   -0.8710    1.1770 o         1 MOL     -0.385342
     61 C21         2.1800   -1.0890    4.0710 c3        1 MOL     -0.520276
     62 C22         2.9710    0.2760    4.0990 c         1 MOL      0.858456
     63 O11         3.8370    0.4460    5.0190 o         1 MOL     -0.710484
     64 O12         2.6960    1.2090    3.2900 o         1 MOL     -0.710484
     65 H26         4.1620   -2.4580    4.2840 hn        1 MOL      0.304450
     66 H27         1.8280   -2.8660    3.0160 h1        1 MOL      0.086612
     67 H28         2.2040   -1.6220    5.0270 hc        1 MOL      0.127487
     68 H29         1.1040   -0.9630    3.9480 hc        1 MOL      0.127487
     69 N6          1.4730   -0.9440    1.0670 n         1 MOL     -0.099656
     70 C23         0.0650   -1.3090    1.3920 c3        1 MOL     -0.158689
     71 C24        -0.3860   -2.6540    0.8070 c         1 MOL      0.562941
     72 O13         0.4110   -3.6030    0.6840 o         1 MOL     -0.508960
     73 H30         1.5740   -0.2040    0.3820 hn        1 MOL      0.211292
     74 H31        -0.5900   -0.5060    1.0320 h1        1 MOL      0.121392
     75 H32        -0.0520   -1.2980    2.4660 h1        1 MOL      0.121392
     76 N7         -1.6980   -2.8470    0.6560 n         1 MOL     -0.482908
     77 C25        -2.4100   -4.1110    0.2750 c3        1 MOL      0.130843
     78 C26        -3.1960   -3.9380   -1.0510 c         1 MOL      0.396040
     79 O14        -3.7060   -4.9170   -1.5990 o         1 MOL     -0.526080
     80 C27        -3.2160   -4.6930    1.3800 c3        1 MOL     -0.023210
     81 C28        -4.3440   -3.8370    2.0040 c3        1 MOL     -0.335010
     82 C29        -5.4580   -3.3850    1.0280 c         1 MOL      0.486603
     83 N8         -6.3620   -4.1920    0.6850 n         1 MOL     -0.631925
     84 O15        -5.4800   -2.2190    0.6930 o         1 MOL     -0.499801
     85 H33        -2.3560   -2.1100    0.8490 hn        1 MOL      0.272950
     86 H34        -1.5560   -4.7490    0.0560 h1        1 MOL      0.087394
     87 H35        -2.5050   -4.9560    2.1580 hc        1 MOL      0.028896
     88 H36        -3.6690   -5.6140    1.0100 hc        1 MOL      0.028896
     89 H37        -3.9240   -2.9670    2.5160 hc        1 MOL      0.143029
     90 H38        -4.6730   -4.4440    2.8390 hc        1 MOL      0.143029
     91 H39        -6.4250   -5.1340    1.0390 hn        1 MOL      0.339227
     92 H40        -7.0930   -3.9280    0.0400 hn        1 MOL      0.339227
     93 N9         -3.3890   -2.7140   -1.6220 n         1 MOL     -0.187433
     94 C30        -3.9270   -2.4930   -2.9640 c3        1 MOL     -0.067810
     95 C31        -5.3860   -1.9450   -3.0500 c         1 MOL      0.391272
     96 O16        -5.8700   -1.7690   -4.1300 o         1 MOL     -0.554442
     97 C32        -3.0050   -1.5980   -3.8310 c3        1 MOL      0.038344
     98 C33        -1.6360   -2.1110   -4.0710 c3        1 MOL     -0.007802
     99 C34        -2.9280   -0.1960   -3.2430 c3        1 MOL     -0.007802
    100 H41        -3.0720   -1.8860   -1.1250 hn        1 MOL      0.146576
    101 H42        -4.1820   -3.4330   -3.4600 h1        1 MOL      0.101348
    102 H43        -3.4390   -1.4640   -4.8190 hc        1 MOL      0.031947
    103 H44        -1.6270   -2.9500   -4.7670 hc        1 MOL     -0.001404
    104 H45        -1.0430   -1.3550   -4.5730 hc        1 MOL     -0.001404
    105 H46        -1.1340   -2.4400   -3.1580 hc        1 MOL     -0.001404
    106 H47        -3.8810    0.1940   -2.8940 hc        1 MOL     -0.001404
    107 H48        -2.2020   -0.1090   -2.4420 hc        1 MOL     -0.001404
    108 H49        -2.5360    0.4650   -4.0180 hc        1 MOL     -0.001404
    109 N10        -6.0460   -1.6030   -1.9180 n         1 MOL      0.052173
    110 C35        -7.3680   -1.0430   -1.9600 c3        1 MOL     -0.188402
    111 C36        -7.4600    0.4010   -1.4000 c         1 MOL      0.512956
    112 O17        -8.5620    0.8850   -1.3260 o         1 MOL     -0.537398
    113 C37        -8.3520   -1.9500   -1.2470 c3        1 MOL     -0.054467
    114 C38        -8.4680   -3.3470   -1.8030 c         1 MOL      0.531418
    115 N11        -8.4900   -3.5400   -3.0340 n         1 MOL     -0.617453
    116 O18        -8.4400   -4.2930   -1.0830 o         1 MOL     -0.572416
    117 H50        -5.6600   -1.8630   -1.0240 hn        1 MOL      0.130105
    118 H51        -7.7610   -0.9570   -2.9750 h1        1 MOL      0.100875
    119 H52        -9.3420   -1.5050   -1.3390 hc        1 MOL      0.021471
    120 H53        -8.1010   -1.9910   -0.1870 hc        1 MOL      0.021471
    121 H54        -8.5970   -2.7580   -3.6560 hn        1 MOL      0.329646
    122 H55        -8.7810   -4.5010   -3.1550 hn        1 MOL      0.329646
    123 N12        -6.3920    0.9250   -0.8420 n         1 MOL     -0.408051
    124 C39        -6.3730    2.2550   -0.0650 c3        1 MOL      0.122093
    125 C40        -4.9300    2.7460    0.1180 c         1 MOL      0.309830
    126 O19        -3.9700    1.9850   -0.0330 o         1 MOL     -0.349569
    127 C41        -7.0000    2.0420    1.3220 c3        1 MOL     -0.202397
    128 C42        -6.7140    0.7340    2.0120 ca        1 MOL      0.153592
    129 C43        -7.7420   -0.2320    2.0620 ca        1 MOL     -0.168744
    130 C44        -5.5560    0.6920    2.8230 ca        1 MOL     -0.168744
    131 C45        -7.6150   -1.3030    2.9300 ca        1 MOL     -0.276292
    132 C46        -5.4540   -0.4950    3.6440 ca        1 MOL     -0.276292
    133 C47        -6.4230   -1.5080    3.7090 ca        1 MOL      0.346410
    134 O20        -6.2260   -2.5780    4.5140 oh        1 MOL     -0.468042
    135 H56        -5.5860    0.3110   -0.8160 hn        1 MOL      0.207038
    136 H57        -6.9740    3.0040   -0.5740 h1        1 MOL      0.073188
    137 H58        -8.0790    1.9620    1.1910 hc        1 MOL      0.057573
    138 H59        -6.6960    2.8090    2.0480 hc        1 MOL      0.057573
    139 H60        -8.6230   -0.1560    1.4450 ha        1 MOL      0.165145
    140 H61        -4.8310    1.4950    2.8980 ha        1 MOL      0.165145
    141 H62        -8.3810   -2.0430    3.0900 ha        1 MOL      0.133283
    142 H63        -4.5580   -0.6430    4.2270 ha        1 MOL      0.133283
    143 H64        -6.8130   -3.3040    4.3060 ho        1 MOL      0.319246
    144 N13        -4.8860    3.9600    0.6460 n         1 MOL     -0.430651
    145 C48        -3.7030    4.7730    1.1100 c3        1 MOL      0.002288
    146 C49        -2.6290    5.1180    0.0890 c         1 MOL      0.382660
    147 O21        -2.1450    6.2940    0.0130 o         1 MOL     -0.533724
    148 C50        -3.1670    4.1720    2.3900 c3        1 MOL      0.143862
    149 C51        -4.1310    4.3290    3.6010 c3        1 MOL     -0.043373
    150 C52        -3.3340    3.6510    4.7300 c         1 MOL      0.511793
    151 O22        -3.8120    2.5760    5.1790 o         1 MOL     -0.642535
    152 O23        -2.2430    4.1120    5.0990 o         1 MOL     -0.642535
    153 H65        -5.7940    4.4030    0.7250 hn        1 MOL      0.278379
    154 H66        -4.1060    5.7420    1.4020 h1        1 MOL      0.037475
    155 H67        -2.2420    4.6650    2.6900 hc        1 MOL      0.034043
    156 H68        -2.9190    3.1350    2.1860 hc        1 MOL      0.034043
    157 H69        -5.0910    3.8300    3.5080 hc        1 MOL     -0.023868
    158 H70        -4.2590    5.3800    3.8780 hc        1 MOL     -0.023868
    159 N14        -2.1570    4.1270   -0.5980 n         1 MOL     -0.162565
    160 C53        -1.1260    4.3020   -1.6660 c3        1 MOL     -0.186057
    161 C54        -1.5910    5.0450   -2.9540 c         1 MOL      0.532616
    162 O24        -0.6700    5.4860   -3.7000 o         1 MOL     -0.543745
    163 C55        -0.7060    2.9440   -2.0600 c3        1 MOL      0.032419
    164 C56        -0.1910    2.0090   -0.9470 c3        1 MOL      0.215764
    165 C57         0.9340    2.4150   -0.0500 c         1 MOL      0.446781
    166 O25         0.8110    3.5270    0.5640 o         1 MOL     -0.589929
    167 O26         1.9330    1.6960    0.0320 o         1 MOL     -0.589929
    168 H71        -2.6140    3.2310   -0.5910 hn        1 MOL      0.128235
    169 H72        -0.3030    4.8960   -1.2560 h1        1 MOL      0.178103
    170 H73         0.0740    3.0020   -2.8280 hc        1 MOL     -0.000562
    171 H74        -1.5150    2.4280   -2.5800 hc        1 MOL     -0.000562
    172 H75         0.0320    1.0750   -1.4560 hc        1 MOL     -0.080328
    173 H76        -1.0370    1.7320   -0.3230 hc        1 MOL     -0.080328
    174 N15        -2.8890    5.2990   -3.1320 n         1 MOL     -0.315832
    175 C58        -3.3690    6.1680   -4.1980 c3        1 MOL     -0.186556
    176 H77        -4.3050    5.7740   -4.5930 h1        1 MOL      0.088043
    177 H78        -3.5340    7.1700   -3.8040 h1        1 MOL      0.088043
    178 H79        -2.6270    6.2080   -4.9970 h1        1 MOL      0.088043
    179 H80        -3.5560    5.0150   -2.4330 hn        1 MOL      0.255559
    180 Ca1         4.3220    1.8670    1.1560 Ca        1 MOL      1.759601
    181 O27         3.4010    4.4470    0.7800 oh        1 MOL     -0.804234
    182 H81         3.7470    5.0580    0.1280 ho        1 MOL      0.376932
    183 H82         2.4970    4.2980    0.5150 ho        1 MOL      0.376932
    184 O28         5.1630    3.0780    3.5160 oh        1 MOL     -0.804234
    185 H83         4.8410    2.7990    4.3770 ho        1 MOL      0.376932
    186 H84         6.1040    2.8870    3.5350 ho        1 MOL      0.376932
    187 O29         6.2120    0.3540    2.5590 oh        1 MOL     -0.804234
    188 H85         6.1430   -0.0880    3.4080 ho        1 MOL      0.376932
    189 H86         7.0190   -0.0020    2.1660 ho        1 MOL      0.376932
@<TRIPOS>BOND
     1    1    2 1   
     2    1    4 1   
     3    1    5 1   
     4    1    6 1   
     5    2    3 2   
     6    2    7 1   
     7    7    8 1   
     8    7   15 1   
     9    8    9 1   
    10    8   11 1   
    11    8   16 1   
    12    9   10 2   
    13    9   19 1   
    14   11   12 1   
    15   11   17 1   
    16   11   18 1   
    17   12   13 1   
    18   12   14 1   
    19   19   20 1   
    20   19   27 1   
    21   20   21 1   
    22   20   23 1   
    23   20   28 1   
    24   21   22 2   
    25   21   38 1   
    26   23   24 1   
    27   23   25 1   
    28   23   29 1   
    29   24   26 1   
    30   24   30 1   
    31   24   31 1   
    32   25   32 1   
    33   25   33 1   
    34   25   34 1   
    35   26   35 1   
    36   26   36 1   
    37   26   37 1   
    38   38   39 1   
    39   38   46 1   
    40   39   40 1   
    41   39   42 1   
    42   39   47 1   
    43   40   41 2   
    44   40   50 1   
    45   42   43 1   
    46   42   48 1   
    47   42   49 1   
    48   43   44 1   
    49   43   45 1   
    50   50   51 1   
    51   50   54 1   
    52   51   52 1   
    53   51   55 1   
    54   51   56 1   
    55   52   53 2   
    56   52   57 1   
    57   57   58 1   
    58   57   65 1   
    59   58   59 1   
    60   58   61 1   
    61   58   66 1   
    62   59   60 2   
    63   59   69 1   
    64   61   62 1   
    65   61   67 1   
    66   61   68 1   
    67   62   63 1   
    68   62   64 1   
    69   69   70 1   
    70   69   73 1   
    71   70   71 1   
    72   70   74 1   
    73   70   75 1   
    74   71   72 2   
    75   71   76 1   
    76   76   77 1   
    77   76   85 1   
    78   77   78 1   
    79   77   80 1   
    80   77   86 1   
    81   78   79 2   
    82   78   93 1   
    83   80   81 1   
    84   80   87 1   
    85   80   88 1   
    86   81   82 1   
    87   81   89 1   
    88   81   90 1   
    89   82   83 1   
    90   82   84 2   
    91   83   91 1   
    92   83   92 1   
    93   93   94 1   
    94   93  100 1   
    95   94   95 1   
    96   94   97 1   
    97   94  101 1   
    98   95   96 2   
    99   95  109 1   
   100   97   98 1   
   101   97   99 1   
   102   97  102 1   
   103   98  103 1   
   104   98  104 1   
   105   98  105 1   
   106   99  106 1   
   107   99  107 1   
   108   99  108 1   
   109  109  110 1   
   110  109  117 1   
   111  110  111 1   
   112  110  113 1   
   113  110  118 1   
   114  111  112 2   
   115  111  123 1   
   116  113  114 1   
   117  113  119 1   
   118  113  120 1   
   119  114  115 1   
   120  114  116 2   
   121  115  121 1   
   122  115  122 1   
   123  123  124 1   
   124  123  135 1   
   125  124  125 1   
   126  124  127 1   
   127  124  136 1   
   128  125  126 2   
   129  125  144 1   
   130  127  128 1   
   131  127  137 1   
   132  127  138 1   
   133  128  129 ar  
   134  128  130 ar  
   135  129  131 ar  
   136  129  139 1   
   137  130  132 ar  
   138  130  140 1   
   139  131  133 ar  
   140  131  141 1   
   141  132  133 ar  
   142  132  142 1   
   143  133  134 1   
   144  134  143 1   
   145  144  145 1   
   146  144  153 1   
   147  145  146 1   
   148  145  148 1   
   149  145  154 1   
   150  146  147 2   
   151  146  159 1   
   152  148  149 1   
   153  148  155 1   
   154  148  156 1   
   155  149  150 1   
   156  149  157 1   
   157  149  158 1   
   158  150  151 1   
   159  150  152 1   
   160  159  160 1   
   161  159  168 1   
   162  160  161 1   
   163  160  163 1   
   164  160  169 1   
   165  161  162 2   
   166  161  174 1   
   167  163  164 1   
   168  163  170 1   
   169  163  171 1   
   170  164  165 1   
   171  164  172 1   
   172  164  173 1   
   173  165  166 1   
   174  165  167 1   
   175  174  175 1   
   176  174  179 1   
   177  175  176 1   
   178  175  177 1   
   179  175  178 1   
   180  181  182 1   
   181  181  183 1   
   182  184  185 1   
   183  184  186 1   
   184  187  188 1   
   185  187  189 1   
@<TRIPOS>SUBSTRUCTURE
     1 MOL         1 TEMP              0 ****  ****    0 ROOT
