@<TRIPOS>MOLECULE
MOL
  181   177     1     0     0
SMALL
resp


@<TRIPOS>ATOM
      1 C1          4.3640   -1.7040    3.0260 c3        1 MOL     -0.519866
      2 C2          5.7870   -1.2330    2.6940 c         1 MOL      0.753994
      3 O1          6.0090   -0.0390    2.4030 o         1 MOL     -0.617555
      4 H1          4.3820   -2.2970    3.9400 hc        1 MOL      0.142304
      5 H2          3.7180   -0.8380    3.1670 hc        1 MOL      0.142304
      6 H3          3.9820   -2.3140    2.2060 hc        1 MOL      0.142304
      7 N1          6.6840   -2.1600    2.7480 n         1 MOL     -0.663653
      8 C3          8.1100   -1.7900    2.6350 c3        1 MOL      0.434196
      9 C4          8.7160   -1.9130    1.1890 c         1 MOL      0.458641
     10 O2          8.4680   -2.9320    0.5860 o         1 MOL     -0.521649
     11 C5          8.9150   -2.7750    3.5350 c3        1 MOL     -0.311009
     12 C6         10.3900   -2.4010    3.5610 c         1 MOL      0.776417
     13 O3         11.2940   -3.2610    3.7530 o         1 MOL     -0.741737
     14 O4         10.6970   -1.2360    3.4500 o         1 MOL     -0.741737
     15 H4          6.4560   -3.1070    3.0140 hn        1 MOL      0.343570
     16 H5          8.3610   -0.7950    3.0020 h1        1 MOL     -0.049545
     17 H6          8.8900   -3.7930    3.1460 hc        1 MOL      0.024976
     18 H7          8.4490   -2.7460    4.5220 hc        1 MOL      0.024976
     19 N2          9.2850   -0.8190    0.7440 n         1 MOL     -0.427836
     20 C7          9.2750   -0.4370   -0.6640 c3        1 MOL      0.261127
     21 C8          7.9260   -0.4660   -1.4290 c         1 MOL      0.514989
     22 O5          7.8790   -0.7760   -2.5490 o         1 MOL     -0.532558
     23 C9          9.9630    0.9080   -0.8700 c3        1 MOL     -0.316393
     24 H8          9.6770   -0.2080    1.4530 hn        1 MOL      0.272196
     25 H9          9.8840   -1.1650   -1.2000 h1        1 MOL      0.014935
     26 H10         9.9840    1.0240   -1.9550 hc        1 MOL      0.072535
     27 H11         9.2740    1.6420   -0.4520 hc        1 MOL      0.072535
     28 H12        10.9900    0.8930   -0.5000 hc        1 MOL      0.072535
     29 N3          6.8470   -0.3200   -0.6570 n         1 MOL     -0.419703
     30 C10         5.4680   -0.6760   -0.9810 c3        1 MOL      0.026654
     31 C11         5.0530   -0.0490   -2.3760 c         1 MOL      0.577162
     32 O6          4.3550   -0.6950   -3.1840 o         1 MOL     -0.527993
     33 C12         5.1750   -2.1700   -0.8150 c3        1 MOL      0.154482
     34 C13         3.6890   -2.5730   -0.9430 c         1 MOL      0.467567
     35 O7          3.3900   -3.6640   -1.5090 o         1 MOL     -0.678768
     36 O8          2.7810   -1.7700   -0.6710 o         1 MOL     -0.678768
     37 H13         7.0230   -0.1860    0.3350 hn        1 MOL      0.172796
     38 H14         4.8390   -0.2180   -0.2070 h1        1 MOL      0.042499
     39 H15         5.4440   -2.4780    0.1950 hc        1 MOL     -0.009536
     40 H16         5.8790   -2.7250   -1.4390 hc        1 MOL     -0.009536
     41 N4          5.5710    1.1650   -2.7230 n         1 MOL     -0.287151
     42 C14         5.3100    1.8490   -3.9650 c3        1 MOL     -0.333688
     43 C15         4.0080    2.6330   -4.0450 c         1 MOL      0.632584
     44 O9          3.9410    3.6160   -4.8130 o         1 MOL     -0.592006
     45 H17         6.1440    1.6430   -2.0350 hn        1 MOL      0.248589
     46 H18         5.3940    1.1220   -4.7750 h1        1 MOL      0.148732
     47 H19         6.0870    2.6150   -4.0460 h1        1 MOL      0.148732
     48 N5          2.9820    2.1730   -3.3690 n         1 MOL     -0.391117
     49 C16         1.6860    2.8570   -3.3380 c3        1 MOL      0.045660
     50 C17         1.7250    4.1660   -2.5150 c         1 MOL      0.461192
     51 O10         2.6650    4.4350   -1.8030 o         1 MOL     -0.518985
     52 C18         0.7060    1.9070   -2.6660 c3        1 MOL     -0.095123
     53 C19        -0.7330    2.0960   -2.9300 c         1 MOL      0.564282
     54 N6         -1.4240    2.6490   -2.0820 n         1 MOL     -0.564733
     55 O11        -1.1930    1.8260   -4.0500 o         1 MOL     -0.617665
     56 H20         3.1680    1.4080   -2.7410 hn        1 MOL      0.209241
     57 H21         1.2940    2.9890   -4.3500 h1        1 MOL      0.057244
     58 H22         0.8820    2.0300   -1.5980 hc        1 MOL      0.086849
     59 H23         1.0850    0.9090   -2.8780 hc        1 MOL      0.086849
     60 H24        -1.0750    2.7970   -1.1380 hn        1 MOL      0.293377
     61 H25        -2.3820    2.9310   -2.2480 hn        1 MOL      0.293377
     62 N7          0.8080    5.0640   -2.6750 n         1 MOL     -0.332602
     63 C20         0.7190    6.3110   -1.9100 c3        1 MOL     -0.024615
     64 C21        -0.5260    6.4420   -0.9790 c         1 MOL      0.491171
     65 O12        -1.5800    5.8190   -1.2360 o         1 MOL     -0.505914
     66 H26         0.0380    4.8530   -3.2980 hn        1 MOL      0.245117
     67 H27         0.6260    7.0790   -2.6770 h1        1 MOL      0.073744
     68 H28         1.6620    6.5600   -1.4090 h1        1 MOL      0.073744
     69 N8         -0.3140    7.1220    0.1540 n         1 MOL     -0.467663
     70 C22        -1.5250    7.4120    0.9850 c3        1 MOL     -0.258429
     71 C23        -2.0750    6.1720    1.8120 c         1 MOL      0.422267
     72 O13        -3.1950    6.2680    2.2700 o         1 MOL     -0.540567
     73 C24        -1.2400    8.5980    1.9410 c3        1 MOL      0.486296
     74 C25        -0.2580    8.3760    3.0680 c3        1 MOL     -0.230660
     75 O14        -0.8480    9.7080    1.0710 oh        1 MOL     -0.662524
     76 H29         0.5870    7.5120    0.4020 hn        1 MOL      0.287419
     77 H30        -2.2760    7.6560    0.2320 h1        1 MOL      0.190404
     78 H31        -2.1710    8.8770    2.4240 h1        1 MOL      0.027996
     79 H32         0.0690    9.6060    0.8050 ho        1 MOL      0.391525
     80 H33         0.4750    7.5970    2.8260 hc        1 MOL      0.046986
     81 H34         0.3370    9.2950    3.1120 hc        1 MOL      0.046986
     82 H35        -0.7470    8.0830    3.9940 hc        1 MOL      0.046986
     83 N9         -1.3750    5.0590    1.7590 n         1 MOL     -0.106652
     84 C26        -1.8460    3.7310    2.2720 c3        1 MOL     -0.030676
     85 C27        -1.5810    2.6090    1.3300 c         1 MOL      0.428273
     86 O15        -0.6590    2.6430    0.5500 o         1 MOL     -0.469165
     87 C28        -1.1680    3.5250    3.6520 c3        1 MOL      0.145265
     88 C29         0.1960    2.7880    3.6650 c3        1 MOL     -0.008175
     89 C30        -1.2300    4.7320    4.5560 c3        1 MOL     -0.186078
     90 C31         1.3920    3.6370    3.2180 c3        1 MOL      0.044416
     91 H36        -0.4300    5.1410    1.4090 hn        1 MOL      0.212942
     92 H37        -2.9260    3.8690    2.3340 h1        1 MOL      0.066863
     93 H38        -1.8320    2.7900    4.1060 hc        1 MOL     -0.050684
     94 H39         0.1240    1.8650    3.0840 hc        1 MOL      0.015162
     95 H40         0.3280    2.5390    4.7180 hc        1 MOL      0.015162
     96 H41        -0.9250    4.4480    5.5600 hc        1 MOL      0.046104
     97 H42        -0.5880    5.5440    4.2060 hc        1 MOL      0.046104
     98 H43        -2.2670    5.0640    4.6280 hc        1 MOL      0.046104
     99 H44         1.1370    4.1110    2.2570 hc        1 MOL     -0.013768
    100 H45         1.6330    4.4020    3.9560 hc        1 MOL     -0.013768
    101 H46         2.2920    3.0350    3.2000 hc        1 MOL     -0.013768
    102 N10        -2.3680    1.5550    1.4230 n         1 MOL     -0.399498
    103 C32        -2.1960    0.3950    0.5670 c3        1 MOL     -0.028103
    104 C33        -3.5510   -0.2080    0.0740 c         1 MOL      0.623156
    105 O16        -3.6660   -1.3590   -0.3130 o         1 MOL     -0.492730
    106 C34        -1.2500   -0.6800    1.0850 c3        1 MOL     -0.203195
    107 C35        -0.7400   -1.7790    0.1050 c         1 MOL      0.741343
    108 O17        -0.2400   -2.8090    0.5230 o         1 MOL     -0.771182
    109 O18        -0.8100   -1.5400   -1.1170 o         1 MOL     -0.771182
    110 H47        -3.0780    1.4470    2.1350 hn        1 MOL      0.283777
    111 H48        -1.7060    0.7560   -0.3320 h1        1 MOL      0.062977
    112 H49        -1.5470   -1.0440    2.0670 hc        1 MOL      0.089938
    113 H50        -0.3280   -0.1540    1.3410 hc        1 MOL      0.089938
    114 N11        -4.6350    0.5610    0.0710 n         1 MOL     -0.489790
    115 C36        -5.9340    0.1590   -0.4680 c3        1 MOL      0.206149
    116 C37        -6.5230   -0.9490    0.4810 c         1 MOL      0.334914
    117 O19        -6.5000   -0.7470    1.7050 o         1 MOL     -0.511194
    118 C38        -7.0040    1.3310   -0.6430 c3        1 MOL     -0.166111
    119 C39        -8.2980    0.9450   -1.1920 ca        1 MOL      0.049727
    120 C40        -8.5370    0.7920   -2.5720 ca        1 MOL     -0.148418
    121 C41        -9.3260    0.4180   -0.2870 ca        1 MOL     -0.148418
    122 C42        -9.7450    0.3340   -3.0950 ca        1 MOL     -0.128336
    123 C43       -10.6350    0.1080   -0.8760 ca        1 MOL     -0.128336
    124 C44       -10.8060    0.0080   -2.2580 ca        1 MOL     -0.089826
    125 H51        -4.5970    1.5100    0.4000 hn        1 MOL      0.245860
    126 H52        -5.8100   -0.3150   -1.4380 h1        1 MOL      0.001687
    127 H53        -6.5430    2.1080   -1.2550 hc        1 MOL      0.081686
    128 H54        -7.1260    1.7670    0.3460 hc        1 MOL      0.081686
    129 H55        -7.7280    1.0680   -3.2290 ha        1 MOL      0.126252
    130 H56        -9.2920    0.5840    0.7820 ha        1 MOL      0.126252
    131 H57        -9.8610    0.3370   -4.1720 ha        1 MOL      0.112898
    132 H58       -11.3760   -0.1540   -0.1480 ha        1 MOL      0.112898
    133 H59       -11.7640   -0.3460   -2.6260 ha        1 MOL      0.099795
    134 N12        -7.0070   -2.0700   -0.0840 n         1 MOL     -0.009579
    135 C45        -7.6860   -3.1370    0.6450 c3        1 MOL     -0.019354
    136 C46        -6.7660   -3.7340    1.6710 c         1 MOL      0.362810
    137 O20        -7.2090   -4.0990    2.7680 o         1 MOL     -0.512710
    138 C47        -8.0940   -4.0990   -0.4220 c3        1 MOL     -0.088283
    139 C48        -7.1480   -3.9320   -1.5830 c3        1 MOL     -0.079296
    140 C49        -6.8660   -2.4100   -1.4930 c3        1 MOL     -0.063793
    141 H60        -8.5760   -2.8070    1.1850 h1        1 MOL      0.066127
    142 H61        -8.2130   -5.1120   -0.0580 hc        1 MOL      0.058343
    143 H62        -9.0770   -3.7860   -0.7580 hc        1 MOL      0.058343
    144 H63        -6.1620   -4.3890   -1.4400 hc        1 MOL      0.032919
    145 H64        -7.6110   -4.1540   -2.5410 hc        1 MOL      0.032919
    146 H65        -5.8700   -2.2210   -1.8820 h1        1 MOL      0.061083
    147 H66        -7.5720   -1.9110   -2.1620 h1        1 MOL      0.061083
    148 N13        -5.4920   -3.9150    1.3590 n         1 MOL     -0.198517
    149 C50        -4.5110   -4.3540    2.3510 c3        1 MOL     -0.254569
    150 C51        -4.3880   -3.4900    3.6220 c         1 MOL      0.469534
    151 O21        -4.0890   -4.0750    4.6780 o         1 MOL     -0.527879
    152 C52        -3.1890   -4.4680    1.5730 c3        1 MOL      0.238083
    153 C53        -3.2610   -5.5010    0.4060 c3        1 MOL     -0.451687
    154 C54        -1.8930   -5.5660   -0.3530 c         1 MOL      0.886903
    155 O22        -1.5540   -4.7670   -1.2630 o         1 MOL     -0.746541
    156 O23        -1.1270   -6.5300   -0.1210 o         1 MOL     -0.746541
    157 H67        -5.0840   -3.5230    0.5230 hn        1 MOL      0.344818
    158 H68        -4.7800   -5.3590    2.6600 h1        1 MOL      0.157069
    159 H69        -2.2900   -4.5690    2.1620 hc        1 MOL     -0.013591
    160 H70        -3.0010   -3.5180    1.0720 hc        1 MOL     -0.013591
    161 H71        -4.0060   -5.1870   -0.3330 hc        1 MOL      0.063373
    162 H72        -3.4340   -6.4850    0.8450 hc        1 MOL      0.063373
    163 N14        -4.5510   -2.1330    3.5250 n         1 MOL     -0.062723
    164 C55        -4.3640   -1.2990    4.6710 c3        1 MOL     -0.424044
    165 H73        -4.2800   -0.2590    4.3540 h1        1 MOL      0.138833
    166 H74        -5.2170   -1.4060    5.3420 h1        1 MOL      0.138833
    167 H75        -3.4530   -1.5930    5.1910 h1        1 MOL      0.138833
    168 H76        -4.8270   -1.7420    2.6350 hn        1 MOL      0.128577
    169 Ca1         0.6090   -3.6710   -1.7990 Ca        1 MOL      1.709265
    170 O24         1.7990   -1.9160   -3.4130 oh        1 MOL     -0.791800
    171 H77         1.5660   -1.2310   -4.0360 ho        1 MOL      0.389843
    172 H78         2.6880   -1.7080   -3.1440 ho        1 MOL      0.389843
    173 O25         1.6970   -5.8010   -3.1530 oh        1 MOL     -0.791800
    174 H79         2.3000   -5.3300   -3.7290 ho        1 MOL      0.389843
    175 H80         1.1440   -6.3150   -3.7370 ho        1 MOL      0.389843
    176 O26        -0.5390   -3.9520   -4.1830 oh        1 MOL     -0.791800
    177 H81        -1.0380   -4.5630   -4.7200 ho        1 MOL      0.389843
    178 H82        -0.9900   -3.1130   -4.2910 ho        1 MOL      0.389843
    179 O27         1.2520   -5.7590   -0.4120 oh        1 MOL     -0.791800
    180 H83         0.3800   -6.0630   -0.1910 ho        1 MOL      0.389843
    181 H84         1.7190   -5.7430    0.4300 ho        1 MOL      0.389843
@<TRIPOS>BOND
     1    1    2 1   
     2    1    4 1   
     3    1    5 1   
     4    1    6 1   
     5    2    3 2   
     6    2    7 1   
     7    7    8 1   
     8    7   15 1   
     9    8    9 1   
    10    8   11 1   
    11    8   16 1   
    12    9   10 2   
    13    9   19 1   
    14   11   12 1   
    15   11   17 1   
    16   11   18 1   
    17   12   13 1   
    18   12   14 1   
    19   19   20 1   
    20   19   24 1   
    21   20   21 1   
    22   20   23 1   
    23   20   25 1   
    24   21   22 2   
    25   21   29 1   
    26   23   26 1   
    27   23   27 1   
    28   23   28 1   
    29   29   30 1   
    30   29   37 1   
    31   30   31 1   
    32   30   33 1   
    33   30   38 1   
    34   31   32 2   
    35   31   41 1   
    36   33   34 1   
    37   33   39 1   
    38   33   40 1   
    39   34   35 1   
    40   34   36 1   
    41   41   42 1   
    42   41   45 1   
    43   42   43 1   
    44   42   46 1   
    45   42   47 1   
    46   43   44 2   
    47   43   48 1   
    48   48   49 1   
    49   48   56 1   
    50   49   50 1   
    51   49   52 1   
    52   49   57 1   
    53   50   51 2   
    54   50   62 1   
    55   52   53 1   
    56   52   58 1   
    57   52   59 1   
    58   53   54 1   
    59   53   55 2   
    60   54   60 1   
    61   54   61 1   
    62   62   63 1   
    63   62   66 1   
    64   63   64 1   
    65   63   67 1   
    66   63   68 1   
    67   64   65 2   
    68   64   69 1   
    69   69   70 1   
    70   69   76 1   
    71   70   71 1   
    72   70   73 1   
    73   70   77 1   
    74   71   72 2   
    75   71   83 1   
    76   73   74 1   
    77   73   75 1   
    78   73   78 1   
    79   74   80 1   
    80   74   81 1   
    81   74   82 1   
    82   75   79 1   
    83   83   84 1   
    84   83   91 1   
    85   84   85 1   
    86   84   87 1   
    87   84   92 1   
    88   85   86 2   
    89   85  102 1   
    90   87   88 1   
    91   87   89 1   
    92   87   93 1   
    93   88   90 1   
    94   88   94 1   
    95   88   95 1   
    96   89   96 1   
    97   89   97 1   
    98   89   98 1   
    99   90   99 1   
   100   90  100 1   
   101   90  101 1   
   102  102  103 1   
   103  102  110 1   
   104  103  104 1   
   105  103  106 1   
   106  103  111 1   
   107  104  105 2   
   108  104  114 1   
   109  106  107 1   
   110  106  112 1   
   111  106  113 1   
   112  107  108 1   
   113  107  109 1   
   114  114  115 1   
   115  114  125 1   
   116  115  116 1   
   117  115  118 1   
   118  115  126 1   
   119  116  117 2   
   120  116  134 1   
   121  118  119 1   
   122  118  127 1   
   123  118  128 1   
   124  119  120 ar  
   125  119  121 ar  
   126  120  122 ar  
   127  120  129 1   
   128  121  123 ar  
   129  121  130 1   
   130  122  124 ar  
   131  122  131 1   
   132  123  124 ar  
   133  123  132 1   
   134  124  133 1   
   135  134  135 1   
   136  134  140 1   
   137  135  136 1   
   138  135  138 1   
   139  135  141 1   
   140  136  137 2   
   141  136  148 1   
   142  138  139 1   
   143  138  142 1   
   144  138  143 1   
   145  139  140 1   
   146  139  144 1   
   147  139  145 1   
   148  140  146 1   
   149  140  147 1   
   150  148  149 1   
   151  148  157 1   
   152  149  150 1   
   153  149  152 1   
   154  149  158 1   
   155  150  151 2   
   156  150  163 1   
   157  152  153 1   
   158  152  159 1   
   159  152  160 1   
   160  153  154 1   
   161  153  161 1   
   162  153  162 1   
   163  154  155 1   
   164  154  156 1   
   165  163  164 1   
   166  163  168 1   
   167  164  165 1   
   168  164  166 1   
   169  164  167 1   
   170  170  171 1   
   171  170  172 1   
   172  173  174 1   
   173  173  175 1   
   174  176  177 1   
   175  176  178 1   
   176  179  180 1   
   177  179  181 1   
@<TRIPOS>SUBSTRUCTURE
     1 MOL         1 TEMP              0 ****  ****    0 ROOT
