@<TRIPOS>MOLECULE
MOL
  195   189     1     0     0
SMALL
resp


@<TRIPOS>ATOM
      1 C1         -1.2430    4.1710   -0.5040 c3        1 MOL     -0.377643
      2 C2          0.2350    4.5250   -0.0010 c         1 MOL      0.913364
      3 O1          1.2120    3.6990   -0.1160 o         1 MOL     -0.626055
      4 H1         -1.3110    4.3390   -1.5780 hc        1 MOL      0.064750
      5 H2         -1.4620    3.1250   -0.2860 hc        1 MOL      0.064750
      6 H3         -1.9640    4.8080    0.0090 hc        1 MOL      0.064750
      7 N1          0.4560    5.7280    0.6310 n         1 MOL     -0.692330
      8 C3          1.8090    6.0680    1.2090 c3        1 MOL      0.230624
      9 C4          2.9360    6.2820    0.1950 c         1 MOL      0.074256
     10 O2          3.8440    7.1040    0.6010 o         1 MOL     -0.487601
     11 C5          2.2580    5.2640    2.4900 c3        1 MOL     -0.239105
     12 C6          1.1370    4.9670    3.4430 c         1 MOL      0.727484
     13 O3          0.1070    4.3200    3.1660 o         1 MOL     -0.642111
     14 O4          1.3750    5.3750    4.5890 o         1 MOL     -0.642111
     15 H4         -0.2910    6.3560    0.9010 hn        1 MOL      0.340027
     16 H5          1.5320    7.0350    1.6140 h1        1 MOL      0.049020
     17 H6          3.0380    5.9030    2.9070 hc        1 MOL      0.088100
     18 H7          2.7000    4.3250    2.1580 hc        1 MOL      0.088100
     19 N2          3.0000    5.4920   -0.8840 n         1 MOL      0.113392
     20 C7          3.9110    5.7240   -1.9950 c3        1 MOL     -0.070588
     21 C8          5.4170    5.8520   -1.6840 c         1 MOL      0.502500
     22 O5          6.0800    6.8030   -2.1350 o         1 MOL     -0.581359
     23 C9          3.2390    6.6890   -3.0120 c3        1 MOL      0.080516
     24 C10         3.2640    8.2070   -2.5840 c3        1 MOL      0.411079
     25 C11         1.8770    6.1890   -3.3960 c3        1 MOL     -0.028320
     26 C12         3.1000    9.1700   -3.7770 c3        1 MOL     -0.188871
     27 H8          2.2260    4.8580   -0.9420 hn        1 MOL      0.089656
     28 H9          3.8550    4.7640   -2.5170 h1        1 MOL      0.069594
     29 H10         3.8700    6.6200   -3.8960 hc        1 MOL     -0.016647
     30 H11         4.1570    8.4520   -2.0150 hc        1 MOL     -0.087570
     31 H12         2.4030    8.4340   -1.9600 hc        1 MOL     -0.087570
     32 H13         1.8860    5.1460   -3.7270 hc        1 MOL     -0.034117
     33 H14         1.1190    6.2840   -2.6220 hc        1 MOL     -0.034117
     34 H15         1.6020    6.8160   -4.2360 hc        1 MOL     -0.034117
     35 H16         2.9220   10.1040   -3.2460 hc        1 MOL      0.007989
     36 H17         4.0340    9.2200   -4.3400 hc        1 MOL      0.007989
     37 H18         2.1900    9.0000   -4.3450 hc        1 MOL      0.007989
     38 N3          6.1370    5.0840   -0.9110 n         1 MOL     -0.349463
     39 C13         5.6950    3.7960   -0.3680 c3        1 MOL     -0.000588
     40 C14         5.9240    3.7730    1.1220 c         1 MOL      0.482496
     41 O6          6.8510    4.3550    1.6970 o         1 MOL     -0.482598
     42 C15         6.3720    2.5620   -1.0560 c3        1 MOL     -0.336586
     43 C16         7.8420    2.6340   -1.2200 c         1 MOL      0.826527
     44 O7          8.5340    2.2700   -0.2650 o         1 MOL     -0.667263
     45 O8          8.3840    2.9550   -2.3360 o         1 MOL     -0.667263
     46 H19         7.1060    5.3360   -0.7490 hn        1 MOL      0.305843
     47 H20         4.6090    3.7650   -0.4330 h1        1 MOL      0.022591
     48 H21         6.0100    2.5520   -2.0850 hc        1 MOL      0.069483
     49 H22         6.0790    1.6470   -0.5450 hc        1 MOL      0.069483
     50 N4          5.2500    2.8650    1.9300 n         1 MOL     -0.210951
     51 C17         5.4430    2.7110    3.3470 c3        1 MOL     -0.260971
     52 C18         6.1870    1.4410    3.7020 c         1 MOL      0.714680
     53 O9          6.7950    1.3810    4.7580 o         1 MOL     -0.610028
     54 H23         4.4940    2.3520    1.5040 hn        1 MOL      0.256148
     55 H24         4.4930    2.7540    3.8860 h1        1 MOL      0.117412
     56 H25         6.1080    3.4930    3.7100 h1        1 MOL      0.117412
     57 N5          6.2180    0.4220    2.8620 n         1 MOL     -0.397094
     58 C19         6.9480   -0.7970    3.0470 c3        1 MOL     -0.051017
     59 C20         7.7710   -1.2730    1.8360 c         1 MOL      0.611364
     60 O10         8.7100   -2.0480    2.0680 o         1 MOL     -0.584940
     61 C21         5.9080   -1.8920    3.4300 c3        1 MOL     -0.143853
     62 C22         4.6460   -1.7970    2.6730 c         1 MOL      0.678320
     63 O11         3.7310   -1.1540    3.1560 o         1 MOL     -0.619430
     64 O12         4.5370   -2.3800    1.5340 o         1 MOL     -0.619430
     65 H26         5.8480    0.6270    1.9400 hn        1 MOL      0.174075
     66 H27         7.7520   -0.6850    3.7810 h1        1 MOL      0.110795
     67 H28         5.7030   -1.7240    4.4890 hc        1 MOL      0.032201
     68 H29         6.3610   -2.8940    3.4110 hc        1 MOL      0.032201
     69 N6          7.4450   -0.7230    0.6060 n         1 MOL     -0.331821
     70 C23         8.0870   -1.1350   -0.7030 c3        1 MOL     -0.037226
     71 C24         7.4570   -2.3530   -1.3890 c         1 MOL      0.517166
     72 O13         7.6870   -2.6690   -2.5720 o         1 MOL     -0.614578
     73 H30         6.6120   -0.1430    0.4950 hn        1 MOL      0.256528
     74 H31         9.0490   -1.5510   -0.4290 h1        1 MOL      0.073419
     75 H32         8.0820   -0.3480   -1.4610 h1        1 MOL      0.073419
     76 N7          6.6930   -3.0700   -0.5880 n         1 MOL      0.021971
     77 C25         6.0720   -4.4020   -0.8820 c3        1 MOL      0.028974
     78 C26         5.1480   -4.4460   -2.1450 c         1 MOL      0.579208
     79 O14         5.1590   -5.4200   -2.8710 o         1 MOL     -0.565338
     80 C27         7.1480   -5.5660   -0.7490 c3        1 MOL      0.157253
     81 C28         7.9040   -5.4900    0.6180 c3        1 MOL     -0.063076
     82 C29         8.5710   -6.7630    1.1500 c         1 MOL      0.697478
     83 N8          8.8370   -6.8880    2.3730 n         1 MOL     -0.804760
     84 O15         8.6080   -7.7400    0.4270 o         1 MOL     -0.612362
     85 H33         6.4450   -2.6590    0.2990 hn        1 MOL     -0.064842
     86 H34         5.3850   -4.5450   -0.0510 h1        1 MOL      0.050019
     87 H35         7.8970   -5.6050   -1.5410 hc        1 MOL     -0.031928
     88 H36         6.5870   -6.5020   -0.7630 hc        1 MOL     -0.031928
     89 H37         7.2140   -5.2680    1.4220 hc        1 MOL     -0.006813
     90 H38         8.7180   -4.7670    0.5040 hc        1 MOL     -0.006813
     91 H39         8.6860   -6.1260    3.0210 hn        1 MOL      0.351763
     92 H40         9.0920   -7.7540    2.8190 hn        1 MOL      0.351763
     93 N9          4.4800   -3.3720   -2.4510 n         1 MOL     -0.532503
     94 C30         3.4660   -3.3870   -3.5330 c3        1 MOL      0.101024
     95 C31         2.0200   -2.9780   -3.0850 c         1 MOL      0.619497
     96 O16         1.0880   -3.5110   -3.5450 o         1 MOL     -0.601490
     97 C32         3.8900   -2.5920   -4.8000 c3        1 MOL      0.224746
     98 C33         4.0940   -1.1140   -4.3500 c3        1 MOL     -0.324226
     99 C34         5.2200   -3.0870   -5.4180 c3        1 MOL     -0.324226
    100 H41         4.8000   -2.5230   -1.9990 hn        1 MOL      0.233158
    101 H42         3.3560   -4.4020   -3.9190 h1        1 MOL      0.069990
    102 H43         3.0970   -2.7120   -5.5320 hc        1 MOL     -0.039316
    103 H44         5.0750   -0.8200   -3.9760 hc        1 MOL      0.079367
    104 H45         3.9270   -0.5030   -5.2420 hc        1 MOL      0.079367
    105 H46         3.2890   -0.7290   -3.7330 hc        1 MOL      0.079367
    106 H47         5.0630   -4.0840   -5.8120 hc        1 MOL      0.079367
    107 H48         5.4730   -2.3820   -6.2050 hc        1 MOL      0.079367
    108 H49         6.1350   -3.0720   -4.8220 hc        1 MOL      0.079367
    109 N10         1.8700   -2.1490   -2.0900 n         1 MOL     -0.487807
    110 C35         0.5910   -1.7160   -1.5440 c3        1 MOL      0.074307
    111 C36         0.0860   -2.6090   -0.4420 c         1 MOL      0.706298
    112 O17         0.8160   -3.2030    0.3400 o         1 MOL     -0.528763
    113 C37         0.7440   -0.3170   -1.0070 c3        1 MOL     -0.061654
    114 C38        -0.4440    0.3680   -0.3590 c         1 MOL      0.506307
    115 N11        -1.4760    0.6440   -1.1130 n         1 MOL     -0.691574
    116 O18        -0.5360    0.4500    0.8730 o         1 MOL     -0.494516
    117 H50         2.6780   -1.8640   -1.5640 hn        1 MOL      0.257229
    118 H51        -0.2370   -1.6830   -2.2540 h1        1 MOL      0.050426
    119 H52         0.9690    0.3290   -1.8620 hc        1 MOL      0.045178
    120 H53         1.6510   -0.3200   -0.3960 hc        1 MOL      0.045178
    121 H54        -1.4380    0.5080   -2.1100 hn        1 MOL      0.332576
    122 H55        -2.3300    0.7490   -0.5960 hn        1 MOL      0.332576
    123 N12        -1.2360   -2.5040   -0.3170 n         1 MOL     -0.615298
    124 C39        -2.0470   -3.1140    0.7310 c3        1 MOL      0.008283
    125 C40        -3.4880   -3.1580    0.1680 c         1 MOL      0.828609
    126 O19        -3.9550   -2.1040   -0.2720 o         1 MOL     -0.584838
    127 C41        -1.9140   -2.3550    2.0680 c3        1 MOL     -0.323335
    128 C42        -2.9480   -2.6040    3.1140 ca        1 MOL      0.008193
    129 C43        -3.2050   -3.8920    3.5490 ca        1 MOL     -0.097460
    130 C44        -3.6510   -1.5430    3.7020 ca        1 MOL     -0.097460
    131 C45        -4.2160   -4.1600    4.5410 ca        1 MOL     -0.326027
    132 C46        -4.6940   -1.7530    4.6750 ca        1 MOL     -0.326027
    133 C47        -4.9920   -3.0880    5.0560 ca        1 MOL      0.383986
    134 O20        -5.9080   -3.3270    6.0390 oh        1 MOL     -0.515625
    135 H56        -1.6880   -2.0390   -1.0940 hn        1 MOL      0.261783
    136 H57        -1.7620   -4.1380    0.9620 h1        1 MOL      0.063945
    137 H58        -1.9090   -1.3230    1.7250 hc        1 MOL      0.205138
    138 H59        -0.9700   -2.6390    2.5460 hc        1 MOL      0.205138
    139 H60        -2.6050   -4.6960    3.1520 ha        1 MOL      0.119343
    140 H61        -3.4350   -0.5370    3.3690 ha        1 MOL      0.119343
    141 H62        -4.3490   -5.1970    4.8040 ha        1 MOL      0.160859
    142 H63        -5.2170   -0.9490    5.1670 ha        1 MOL      0.160859
    143 H64        -5.9850   -4.2600    6.2760 ho        1 MOL      0.360608
    144 N13        -4.1620   -4.3330    0.0710 n         1 MOL     -0.786791
    145 C48        -5.6520   -4.3910   -0.1580 c3        1 MOL      0.261361
    146 C49        -6.5450   -3.6770    0.9560 c         1 MOL      0.560239
    147 O21        -6.3750   -4.0100    2.1160 o         1 MOL     -0.550749
    148 C50        -6.0960   -5.8480   -0.2960 c3        1 MOL      0.117422
    149 C51        -5.5490   -6.5980   -1.4910 c3        1 MOL      0.021968
    150 C52        -6.3090   -7.9460   -1.6510 c         1 MOL      0.619506
    151 O22        -5.7460   -8.9400   -1.2090 o         1 MOL     -0.655746
    152 O23        -7.4620   -7.9810   -2.1630 o         1 MOL     -0.655746
    153 H65        -3.6750   -5.1630    0.3530 hn        1 MOL      0.354248
    154 H66        -5.9540   -3.9310   -1.1040 h1        1 MOL     -0.017742
    155 H67        -7.1800   -5.9570   -0.4290 hc        1 MOL     -0.002328
    156 H68        -5.8480   -6.3950    0.6090 hc        1 MOL     -0.002328
    157 H69        -4.4970   -6.8800   -1.3820 hc        1 MOL     -0.049359
    158 H70        -5.5980   -5.9570   -2.3730 hc        1 MOL     -0.049359
    159 N14        -7.4700   -2.7740    0.6370 n         1 MOL     -0.499761
    160 C53        -7.8010   -2.0660   -0.6050 c3        1 MOL     -0.203545
    161 C54        -8.5230   -3.0150   -1.6020 c         1 MOL      0.101629
    162 O24        -9.3860   -3.8570   -1.3400 o         1 MOL     -0.419086
    163 C55        -8.4950   -0.7730   -0.1760 c3        1 MOL      0.675293
    164 C56        -9.1520    0.1200   -1.2610 c3        1 MOL     -1.464814
    165 C57        -9.5310    1.5570   -0.7690 c         1 MOL      1.056534
    166 O25        -9.8110    2.3590   -1.6880 o         1 MOL     -0.732682
    167 O26        -9.5180    1.9340    0.4050 o         1 MOL     -0.732682
    168 H71        -7.6630   -2.2560    1.4740 hn        1 MOL      0.285304
    169 H72        -6.8270   -1.8410   -1.0440 h1        1 MOL      0.074946
    170 H73        -7.8110   -0.2730    0.5000 hc        1 MOL      0.004714
    171 H74        -9.2690   -1.1610    0.4740 hc        1 MOL      0.004714
    172 H75       -10.1180   -0.3170   -1.5310 hc        1 MOL      0.364280
    173 H76        -8.5750    0.0720   -2.1890 hc        1 MOL      0.364280
    174 N15        -8.0950   -2.7670   -2.8080 n         1 MOL      0.061964
    175 C58        -8.5800   -3.3520   -4.0710 c3        1 MOL     -0.318004
    176 H77        -8.3640   -2.6700   -4.8930 h1        1 MOL      0.118076
    177 H78        -8.0770   -4.3030   -4.2480 h1        1 MOL      0.118076
    178 H79        -9.6560   -3.5150   -4.0070 h1        1 MOL      0.118076
    179 H80        -7.3300   -2.1280   -2.8940 hn        1 MOL      0.188174
    180 Ca1       -10.1470    4.5460   -0.1400 Ca        1 MOL      1.463130
    181 O27       -11.5330    3.9970    2.1630 oh        1 MOL     -0.785653
    182 O28       -10.9400    7.2040   -0.3320 oh        1 MOL     -0.785653
    183 H81       -11.6910    3.1250    2.5230 ho        1 MOL      0.341369
    184 H82       -11.5410    7.4250   -1.0460 ho        1 MOL      0.341369
    185 H83       -11.9900    4.5930    2.7520 ho        1 MOL      0.341369
    186 H84       -10.4580    8.0160   -0.1770 ho        1 MOL      0.341369
    187 O29       -12.6410    3.2740   -0.2680 oh        1 MOL     -0.785653
    188 H85       -13.0500    3.2120   -1.1320 ho        1 MOL      0.341369
    189 H86       -13.1160    2.6390    0.2640 ho        1 MOL      0.341369
    190 O30       -11.1420    5.2650   -2.6400 oh        1 MOL     -0.785653
    191 H87       -10.9360    4.9340   -3.5100 ho        1 MOL      0.341369
    192 H88       -11.6340    6.0740   -2.8010 ho        1 MOL      0.341369
    193 O31        -8.9210    5.6040    2.0150 oh        1 MOL     -0.785653
    194 H89        -9.4380    5.8340    2.7900 ho        1 MOL      0.341369
    195 H90        -8.0290    5.8890    2.2350 ho        1 MOL      0.341369
@<TRIPOS>BOND
     1    1    2 1   
     2    1    4 1   
     3    1    5 1   
     4    1    6 1   
     5    2    3 2   
     6    2    7 1   
     7    7    8 1   
     8    7   15 1   
     9    8    9 1   
    10    8   11 1   
    11    8   16 1   
    12    9   10 2   
    13    9   19 1   
    14   11   12 1   
    15   11   17 1   
    16   11   18 1   
    17   12   13 1   
    18   12   14 1   
    19   19   20 1   
    20   19   27 1   
    21   20   21 1   
    22   20   23 1   
    23   20   28 1   
    24   21   22 2   
    25   21   38 1   
    26   23   24 1   
    27   23   25 1   
    28   23   29 1   
    29   24   26 1   
    30   24   30 1   
    31   24   31 1   
    32   25   32 1   
    33   25   33 1   
    34   25   34 1   
    35   26   35 1   
    36   26   36 1   
    37   26   37 1   
    38   38   39 1   
    39   38   46 1   
    40   39   40 1   
    41   39   42 1   
    42   39   47 1   
    43   40   41 2   
    44   40   50 1   
    45   42   43 1   
    46   42   48 1   
    47   42   49 1   
    48   43   44 1   
    49   43   45 1   
    50   50   51 1   
    51   50   54 1   
    52   51   52 1   
    53   51   55 1   
    54   51   56 1   
    55   52   53 2   
    56   52   57 1   
    57   57   58 1   
    58   57   65 1   
    59   58   59 1   
    60   58   61 1   
    61   58   66 1   
    62   59   60 2   
    63   59   69 1   
    64   61   62 1   
    65   61   67 1   
    66   61   68 1   
    67   62   63 1   
    68   62   64 1   
    69   69   70 1   
    70   69   73 1   
    71   70   71 1   
    72   70   74 1   
    73   70   75 1   
    74   71   72 2   
    75   71   76 1   
    76   76   77 1   
    77   76   85 1   
    78   77   78 1   
    79   77   80 1   
    80   77   86 1   
    81   78   79 2   
    82   78   93 1   
    83   80   81 1   
    84   80   87 1   
    85   80   88 1   
    86   81   82 1   
    87   81   89 1   
    88   81   90 1   
    89   82   83 1   
    90   82   84 2   
    91   83   91 1   
    92   83   92 1   
    93   93   94 1   
    94   93  100 1   
    95   94   95 1   
    96   94   97 1   
    97   94  101 1   
    98   95   96 2   
    99   95  109 1   
   100   97   98 1   
   101   97   99 1   
   102   97  102 1   
   103   98  103 1   
   104   98  104 1   
   105   98  105 1   
   106   99  106 1   
   107   99  107 1   
   108   99  108 1   
   109  109  110 1   
   110  109  117 1   
   111  110  111 1   
   112  110  113 1   
   113  110  118 1   
   114  111  112 2   
   115  111  123 1   
   116  113  114 1   
   117  113  119 1   
   118  113  120 1   
   119  114  115 1   
   120  114  116 2   
   121  115  121 1   
   122  115  122 1   
   123  123  124 1   
   124  123  135 1   
   125  124  125 1   
   126  124  127 1   
   127  124  136 1   
   128  125  126 2   
   129  125  144 1   
   130  127  128 1   
   131  127  137 1   
   132  127  138 1   
   133  128  129 ar  
   134  128  130 ar  
   135  129  131 ar  
   136  129  139 1   
   137  130  132 ar  
   138  130  140 1   
   139  131  133 ar  
   140  131  141 1   
   141  132  133 ar  
   142  132  142 1   
   143  133  134 1   
   144  134  143 1   
   145  144  145 1   
   146  144  153 1   
   147  145  146 1   
   148  145  148 1   
   149  145  154 1   
   150  146  147 2   
   151  146  159 1   
   152  148  149 1   
   153  148  155 1   
   154  148  156 1   
   155  149  150 1   
   156  149  157 1   
   157  149  158 1   
   158  150  151 1   
   159  150  152 1   
   160  159  160 1   
   161  159  168 1   
   162  160  161 1   
   163  160  163 1   
   164  160  169 1   
   165  161  162 2   
   166  161  174 1   
   167  163  164 1   
   168  163  170 1   
   169  163  171 1   
   170  164  165 1   
   171  164  172 1   
   172  164  173 1   
   173  165  166 1   
   174  165  167 1   
   175  174  175 1   
   176  174  179 1   
   177  175  176 1   
   178  175  177 1   
   179  175  178 1   
   180  181  183 1   
   181  181  185 1   
   182  182  184 1   
   183  182  186 1   
   184  187  188 1   
   185  187  189 1   
   186  190  191 1   
   187  190  192 1   
   188  193  194 1   
   189  193  195 1   
@<TRIPOS>SUBSTRUCTURE
     1 MOL         1 TEMP              0 ****  ****    0 ROOT
