@<TRIPOS>MOLECULE
MOL
  192   187     1     0     0
SMALL
resp


@<TRIPOS>ATOM
      1 C1         11.9320    5.5930   -2.2320 c3        1 MOL     -0.402531
      2 C2         11.7580    4.2920   -1.4650 c         1 MOL      0.612622
      3 O1         12.6210    3.4140   -1.4800 o         1 MOL     -0.598087
      4 H1         12.9450    5.6480   -2.6300 hc        1 MOL      0.104958
      5 H2         11.2170    5.6280   -3.0550 hc        1 MOL      0.104958
      6 H3         11.7570    6.4370   -1.5640 hc        1 MOL      0.104958
      7 N1         10.7630    4.3450   -0.6360 n         1 MOL     -0.046196
      8 C3         10.4140    3.2190    0.2090 c3        1 MOL     -0.500039
      9 C4          9.1670    2.4070   -0.3550 c         1 MOL      0.544388
     10 O2          8.1620    3.0110   -0.8700 o         1 MOL     -0.610773
     11 C5         10.1470    3.7480    1.6790 c3        1 MOL      0.004587
     12 C6          9.2340    5.0150    1.8310 c         1 MOL      0.756403
     13 O3          8.4800    5.3840    0.8650 o         1 MOL     -0.715941
     14 O4          9.4410    5.7730    2.7980 o         1 MOL     -0.715941
     15 H4         10.0600    5.0690   -0.7160 hn        1 MOL      0.075648
     16 H5         11.2780    2.5520    0.3250 h1        1 MOL      0.193252
     17 H6         11.0940    3.9750    2.1550 hc        1 MOL      0.056394
     18 H7          9.7990    2.8600    2.1960 hc        1 MOL      0.056394
     19 N2          9.2810    1.0820   -0.2050 n         1 MOL     -0.343584
     20 C7          8.1830    0.2100   -0.5900 c3        1 MOL     -0.048723
     21 C8          7.3050    0.0840    0.6510 c         1 MOL      0.635046
     22 O5          7.7740   -0.4170    1.6750 o         1 MOL     -0.551371
     23 C9          8.7290   -1.2570   -0.9070 c3        1 MOL     -0.279107
     24 C10         7.5510   -2.0150   -1.5450 c3        1 MOL      0.071249
     25 C11         8.0030   -3.4290   -2.1590 c3        1 MOL      0.063009
     26 C12         6.8360   -4.0280   -3.0720 c3        1 MOL     -0.083026
     27 N3          7.3530   -4.3420   -4.4560 n4        1 MOL     -0.336286
     28 H8         10.0980    0.6670    0.2350 hn        1 MOL      0.310050
     29 H9          7.6990    0.5740   -1.4990 h1        1 MOL      0.128498
     30 H10         9.1440   -1.7790   -0.0390 hc        1 MOL      0.101904
     31 H11         9.5210   -1.1480   -1.6510 hc        1 MOL      0.101904
     32 H12         7.1880   -1.4220   -2.3830 hc        1 MOL     -0.000018
     33 H13         6.7460   -2.0770   -0.8150 hc        1 MOL     -0.000018
     34 H14         8.3520   -4.1160   -1.3890 hc        1 MOL      0.028960
     35 H15         8.9030   -3.3060   -2.7490 hc        1 MOL      0.028960
     36 H16         5.9440   -3.4120   -3.0690 hx        1 MOL      0.118978
     37 H17         6.5410   -4.9910   -2.6720 hx        1 MOL      0.118978
     38 H18         8.0260   -5.1040   -4.4240 hn        1 MOL      0.286231
     39 H19         6.5150   -4.4730   -4.9960 hn        1 MOL      0.286231
     40 H20         7.7620   -3.5600   -4.9500 hn        1 MOL      0.286231
     41 N4          6.0350    0.4590    0.5850 n         1 MOL     -0.376552
     42 C13         5.0290    0.2830    1.6110 c3        1 MOL      0.266889
     43 C14         3.6970   -0.0420    0.9850 c         1 MOL      0.397587
     44 O6          3.3950    0.4570   -0.0740 o         1 MOL     -0.568761
     45 C15         4.9790    1.4290    2.6410 c3        1 MOL     -0.272367
     46 C16         5.2730    2.8730    2.1830 c         1 MOL      0.805633
     47 O7          6.4330    3.2890    2.2400 o         1 MOL     -0.750699
     48 O8          4.4330    3.5600    1.5590 o         1 MOL     -0.750699
     49 H21         5.6320    0.9350   -0.2050 hn        1 MOL      0.127267
     50 H22         5.4380   -0.5650    2.1610 h1        1 MOL      0.006065
     51 H23         5.8490    1.2930    3.2780 hc        1 MOL      0.069470
     52 H24         4.1080    1.4200    3.2970 hc        1 MOL      0.069470
     53 N5          2.7990   -0.7240    1.5990 n         1 MOL     -0.345147
     54 C17         2.9040   -1.6310    2.7330 c3        1 MOL     -0.018070
     55 C18         2.6840   -3.0710    2.3460 c         1 MOL      0.622730
     56 O9          2.6900   -3.4660    1.1530 o         1 MOL     -0.567167
     57 H25         2.0120   -0.8080    0.9710 hn        1 MOL      0.308964
     58 H26         2.0700   -1.3660    3.3730 h1        1 MOL      0.065887
     59 H27         3.7310   -1.3600    3.4050 h1        1 MOL      0.065887
     60 N6          2.6640   -3.9750    3.3800 n         1 MOL     -0.453708
     61 C19         3.0030   -5.4110    3.1130 c3        1 MOL     -0.098254
     62 C20         1.9290   -6.1210    2.2890 c         1 MOL      0.324581
     63 O10         2.1130   -7.2190    1.7740 o         1 MOL     -0.511782
     64 C21         3.2430   -6.2230    4.4560 c3        1 MOL     -0.118289
     65 C22         2.1590   -5.9350    5.4020 c         1 MOL      0.706533
     66 O11         2.3620   -5.1650    6.3530 o         1 MOL     -0.681454
     67 O12         1.0570   -6.4680    5.1180 o         1 MOL     -0.681454
     68 H28         2.7440   -3.6120    4.3180 hn        1 MOL      0.274598
     69 H29         3.9480   -5.3750    2.5640 h1        1 MOL      0.110417
     70 H30         4.2200   -6.1000    4.9250 hc        1 MOL      0.055572
     71 H31         3.2200   -7.3020    4.3000 hc        1 MOL      0.055572
     72 N7          0.6820   -5.6470    2.2560 n         1 MOL      0.018845
     73 C23        -0.4040   -6.2080    1.4560 c3        1 MOL     -0.128628
     74 C24        -0.2740   -5.7780   -0.0290 c         1 MOL      0.536508
     75 O13        -0.7950   -6.4180   -0.9480 o         1 MOL     -0.585134
     76 H32         0.5090   -4.7280    2.6220 hn        1 MOL      0.142556
     77 H33        -1.3510   -5.8970    1.8990 h1        1 MOL      0.100470
     78 H34        -0.4080   -7.2920    1.4430 h1        1 MOL      0.100470
     79 N8          0.4180   -4.6810   -0.3190 n         1 MOL     -0.282283
     80 C25         0.6510   -4.1100   -1.6310 c3        1 MOL      0.008530
     81 C26         0.5570   -2.5710   -1.6140 c         1 MOL      0.322380
     82 O14         1.0340   -2.0010   -0.6240 o         1 MOL     -0.467338
     83 C27         2.0640   -4.4090   -2.1310 c3        1 MOL      0.199484
     84 C28         2.4780   -5.8130   -1.8200 c3        1 MOL     -0.395908
     85 O15         2.0970   -4.1930   -3.5170 oh        1 MOL     -0.619179
     86 H35         0.9160   -4.1310    0.3600 hn        1 MOL      0.213830
     87 H36        -0.0410   -4.5630   -2.3390 h1        1 MOL      0.075881
     88 H37         2.8150   -3.7050   -1.7780 h1        1 MOL      0.116909
     89 H38         1.6340   -4.9600   -3.8470 ho        1 MOL      0.375489
     90 H39         3.4140   -6.0810   -2.3050 hc        1 MOL      0.111989
     91 H40         2.7610   -5.9870   -0.7800 hc        1 MOL      0.111989
     92 H41         1.6950   -6.5610   -1.9980 hc        1 MOL      0.111989
     93 N9          0.0030   -1.9160   -2.6330 n         1 MOL     -0.043131
     94 C29        -0.5640   -0.5460   -2.5470 c3        1 MOL     -0.218839
     95 C30        -1.9210   -0.3840   -1.8070 c         1 MOL      0.534845
     96 O16        -2.1770    0.7090   -1.2950 o         1 MOL     -0.524286
     97 C31        -0.5610    0.1450   -3.9780 c3        1 MOL      0.013946
     98 C32         0.8070    0.0170   -4.6570 c3        1 MOL     -0.016362
     99 C33        -0.9120    1.6750   -3.9290 c3        1 MOL     -0.116502
    100 C34         1.9440    0.6490   -3.7630 c3        1 MOL     -0.040283
    101 H42        -0.3960   -2.5620   -3.3020 hn        1 MOL      0.165225
    102 H43         0.1740    0.0070   -1.9630 h1        1 MOL      0.137186
    103 H44        -1.3150   -0.2740   -4.6350 hc        1 MOL      0.042551
    104 H45         0.7750    0.5140   -5.6310 hc        1 MOL     -0.005491
    105 H46         1.0740   -1.0330   -4.7100 hc        1 MOL     -0.005491
    106 H47        -0.4120    2.2870   -3.1790 hc        1 MOL      0.047345
    107 H48        -0.7060    2.2080   -4.8600 hc        1 MOL      0.047345
    108 H49        -1.9730    1.8950   -3.9230 hc        1 MOL      0.047345
    109 H50         1.7740    1.7160   -3.6290 hc        1 MOL      0.007045
    110 H51         2.1520    0.1550   -2.8090 hc        1 MOL      0.007045
    111 H52         2.8750    0.4760   -4.3020 hc        1 MOL      0.007045
    112 N10        -2.6210   -1.4870   -1.5460 n         1 MOL     -0.304018
    113 C35        -3.9230   -1.5190   -0.8220 c3        1 MOL     -0.206870
    114 C36        -5.0890   -1.8620   -1.7590 c         1 MOL      0.682410
    115 O17        -4.8630   -2.5280   -2.7810 o         1 MOL     -0.549681
    116 C37        -3.8710   -2.3940    0.4470 c3        1 MOL      0.416026
    117 C38        -3.9440   -3.8920    0.3670 c3        1 MOL     -0.374650
    118 O18        -2.5730   -2.0890    0.9890 oh        1 MOL     -0.644715
    119 H53        -2.2900   -2.2540   -2.1070 hn        1 MOL      0.230048
    120 H54        -3.9150   -0.4630   -0.5280 h1        1 MOL      0.085256
    121 H55        -4.5410   -2.1320    1.2670 h1        1 MOL      0.006995
    122 H56        -2.5260   -1.1730    1.2590 ho        1 MOL      0.409305
    123 H57        -3.3840   -4.2420   -0.4970 hc        1 MOL      0.103170
    124 H58        -3.4320   -4.3530    1.2110 hc        1 MOL      0.103170
    125 H59        -5.0100   -4.0500    0.2680 hc        1 MOL      0.103170
    126 N11        -6.2570   -1.3950   -1.3460 n         1 MOL     -0.440063
    127 C39        -7.5340   -1.6950   -2.0010 c3        1 MOL     -0.207216
    128 C40        -8.6380   -0.6380   -1.8050 c         1 MOL      0.716107
    129 O19        -9.3230   -0.4040   -2.7590 o         1 MOL     -0.566940
    130 C41        -8.1240   -3.0140   -1.5440 c3        1 MOL      0.307039
    131 C42        -9.4450   -3.4620   -1.9990 c3        1 MOL     -0.360855
    132 O20        -8.1200   -3.3240   -0.1590 oh        1 MOL     -0.658261
    133 H60        -6.3680   -0.8330   -0.5130 hn        1 MOL      0.223462
    134 H61        -7.3020   -1.7200   -3.0630 h1        1 MOL      0.149370
    135 H62        -7.4300   -3.7490   -1.9640 h1        1 MOL      0.043210
    136 H63        -7.9620   -4.2560    0.0100 ho        1 MOL      0.424425
    137 H64        -9.4390   -3.6780   -3.0710 hc        1 MOL      0.098059
    138 H65        -9.7710   -4.4250   -1.5930 hc        1 MOL      0.098059
    139 H66       -10.2520   -2.7970   -1.6980 hc        1 MOL      0.098059
    140 N12        -8.7590   -0.0570   -0.6400 n         1 MOL     -0.467773
    141 C43        -9.7970    0.9480   -0.3560 c3        1 MOL     -0.185247
    142 C44        -9.3170    1.9420    0.7460 c         1 MOL      0.701021
    143 O21        -9.1870    1.5280    1.9150 o         1 MOL     -0.522414
    144 C45       -11.0950    0.1570   -0.0480 c3        1 MOL     -0.147426
    145 C46       -12.3360    1.0440    0.0610 c3        1 MOL      0.153440
    146 C47       -13.4920    0.1470    0.4890 c3        1 MOL      0.029550
    147 C48       -14.7560    0.9590    0.7500 c3        1 MOL      0.211624
    148 N13       -15.8580    0.0920    1.2410 n4        1 MOL     -0.394724
    149 H67        -8.1820   -0.4090    0.1080 hn        1 MOL      0.349656
    150 H68        -9.9080    1.6080   -1.2180 h1        1 MOL      0.127617
    151 H69       -11.0380   -0.2470    0.9660 hc        1 MOL      0.085609
    152 H70       -11.3000   -0.6160   -0.8000 hc        1 MOL      0.085609
    153 H71       -12.5980    1.6140   -0.8260 hc        1 MOL     -0.028334
    154 H72       -12.2570    1.7810    0.8610 hc        1 MOL     -0.028334
    155 H73       -13.2010   -0.3100    1.4430 hc        1 MOL     -0.013522
    156 H74       -13.7240   -0.6050   -0.2660 hc        1 MOL     -0.013522
    157 H75       -15.0510    1.3210   -0.2360 hx        1 MOL      0.030396
    158 H76       -14.5700    1.8470    1.3510 hx        1 MOL      0.030396
    159 H77       -16.0070   -0.7050    0.6370 hn        1 MOL      0.293394
    160 H78       -15.6880   -0.1600    2.2060 hn        1 MOL      0.293394
    161 H79       -16.7370    0.5900    1.1660 hn        1 MOL      0.293394
    162 N14        -8.9810    3.1960    0.3910 n         1 MOL     -0.707262
    163 C49        -8.4990    4.1930    1.3440 c3        1 MOL      0.253068
    164 C50        -6.9810    4.2190    1.4950 c         1 MOL      0.471463
    165 O22        -6.3770    4.0820    2.5760 o         1 MOL     -0.550582
    166 C51        -9.1550    5.5440    0.8640 c3        1 MOL     -0.155580
    167 C52       -10.5280    5.5860    1.4680 c3        1 MOL     -0.347693
    168 C53       -11.3340    6.8410    0.9700 c         1 MOL      0.687064
    169 O23       -10.7160    7.9070    0.6090 o         1 MOL     -0.659060
    170 O24       -12.5870    6.7910    0.9140 o         1 MOL     -0.659060
    171 H80        -9.4940    3.5130   -0.4210 hn        1 MOL      0.364676
    172 H81        -8.9000    3.9760    2.3340 h1        1 MOL      0.045992
    173 H82        -9.2360    5.5240   -0.2220 hc        1 MOL      0.093196
    174 H83        -8.5820    6.3980    1.2250 hc        1 MOL      0.093196
    175 H84       -10.4650    5.6680    2.5520 hc        1 MOL      0.095760
    176 H85       -11.0320    4.6160    1.4240 hc        1 MOL      0.095760
    177 N15        -6.2570    4.1130    0.4030 n         1 MOL     -0.334053
    178 C54        -6.4560    4.7730   -0.8840 c3        1 MOL     -0.103647
    179 H86        -7.5190    4.7890   -1.1240 h1        1 MOL      0.063546
    180 H87        -6.0810    5.7960   -0.8300 h1        1 MOL      0.063546
    181 H88        -5.9160    4.2290   -1.6590 h1        1 MOL      0.063546
    182 H89        -5.3410    3.6990    0.4700 hn        1 MOL      0.282142
    183 Ca1         6.1900    4.6440   -0.1230 Ca        1 MOL      1.766216
    184 O25         3.7200    5.2230   -0.9510 oh        1 MOL     -0.889679
    185 H90         3.2250    4.4970   -1.3450 ho        1 MOL      0.439280
    186 H91         3.0490    5.8110   -0.6200 ho        1 MOL      0.439280
    187 O26         5.9460    6.4480    1.9650 oh        1 MOL     -0.889679
    188 H92         5.5460    7.2960    2.1720 ho        1 MOL      0.439280
    189 H93         6.7700    6.4490    2.4490 ho        1 MOL      0.439280
    190 O27         5.3690    2.5650   -1.6400 oh        1 MOL     -0.889679
    191 H94         5.7140    1.9340   -2.2680 ho        1 MOL      0.439280
    192 H95         4.4200    2.4290   -1.6570 ho        1 MOL      0.439280
@<TRIPOS>BOND
     1    1    2 1   
     2    1    4 1   
     3    1    5 1   
     4    1    6 1   
     5    2    3 2   
     6    2    7 1   
     7    7    8 1   
     8    7   15 1   
     9    8    9 1   
    10    8   11 1   
    11    8   16 1   
    12    9   10 2   
    13    9   19 1   
    14   11   12 1   
    15   11   17 1   
    16   11   18 1   
    17   12   13 1   
    18   12   14 1   
    19   19   20 1   
    20   19   28 1   
    21   20   21 1   
    22   20   23 1   
    23   20   29 1   
    24   21   22 2   
    25   21   41 1   
    26   23   24 1   
    27   23   30 1   
    28   23   31 1   
    29   24   25 1   
    30   24   32 1   
    31   24   33 1   
    32   25   26 1   
    33   25   34 1   
    34   25   35 1   
    35   26   27 1   
    36   26   36 1   
    37   26   37 1   
    38   27   38 1   
    39   27   39 1   
    40   27   40 1   
    41   41   42 1   
    42   41   49 1   
    43   42   43 1   
    44   42   45 1   
    45   42   50 1   
    46   43   44 2   
    47   43   53 1   
    48   45   46 1   
    49   45   51 1   
    50   45   52 1   
    51   46   47 1   
    52   46   48 1   
    53   53   54 1   
    54   53   57 1   
    55   54   55 1   
    56   54   58 1   
    57   54   59 1   
    58   55   56 2   
    59   55   60 1   
    60   60   61 1   
    61   60   68 1   
    62   61   62 1   
    63   61   64 1   
    64   61   69 1   
    65   62   63 2   
    66   62   72 1   
    67   64   65 1   
    68   64   70 1   
    69   64   71 1   
    70   65   66 1   
    71   65   67 1   
    72   72   73 1   
    73   72   76 1   
    74   73   74 1   
    75   73   77 1   
    76   73   78 1   
    77   74   75 2   
    78   74   79 1   
    79   79   80 1   
    80   79   86 1   
    81   80   81 1   
    82   80   83 1   
    83   80   87 1   
    84   81   82 2   
    85   81   93 1   
    86   83   84 1   
    87   83   85 1   
    88   83   88 1   
    89   84   90 1   
    90   84   91 1   
    91   84   92 1   
    92   85   89 1   
    93   93   94 1   
    94   93  101 1   
    95   94   95 1   
    96   94   97 1   
    97   94  102 1   
    98   95   96 2   
    99   95  112 1   
   100   97   98 1   
   101   97   99 1   
   102   97  103 1   
   103   98  100 1   
   104   98  104 1   
   105   98  105 1   
   106   99  106 1   
   107   99  107 1   
   108   99  108 1   
   109  100  109 1   
   110  100  110 1   
   111  100  111 1   
   112  112  113 1   
   113  112  119 1   
   114  113  114 1   
   115  113  116 1   
   116  113  120 1   
   117  114  115 2   
   118  114  126 1   
   119  116  117 1   
   120  116  118 1   
   121  116  121 1   
   122  117  123 1   
   123  117  124 1   
   124  117  125 1   
   125  118  122 1   
   126  126  127 1   
   127  126  133 1   
   128  127  128 1   
   129  127  130 1   
   130  127  134 1   
   131  128  129 2   
   132  128  140 1   
   133  130  131 1   
   134  130  132 1   
   135  130  135 1   
   136  131  137 1   
   137  131  138 1   
   138  131  139 1   
   139  132  136 1   
   140  140  141 1   
   141  140  149 1   
   142  141  142 1   
   143  141  144 1   
   144  141  150 1   
   145  142  143 2   
   146  142  162 1   
   147  144  145 1   
   148  144  151 1   
   149  144  152 1   
   150  145  146 1   
   151  145  153 1   
   152  145  154 1   
   153  146  147 1   
   154  146  155 1   
   155  146  156 1   
   156  147  148 1   
   157  147  157 1   
   158  147  158 1   
   159  148  159 1   
   160  148  160 1   
   161  148  161 1   
   162  162  163 1   
   163  162  171 1   
   164  163  164 1   
   165  163  166 1   
   166  163  172 1   
   167  164  165 2   
   168  164  177 1   
   169  166  167 1   
   170  166  173 1   
   171  166  174 1   
   172  167  168 1   
   173  167  175 1   
   174  167  176 1   
   175  168  169 1   
   176  168  170 1   
   177  177  178 1   
   178  177  182 1   
   179  178  179 1   
   180  178  180 1   
   181  178  181 1   
   182  184  185 1   
   183  184  186 1   
   184  187  188 1   
   185  187  189 1   
   186  190  191 1   
   187  190  192 1   
@<TRIPOS>SUBSTRUCTURE
     1 MOL         1 TEMP              0 ****  ****    0 ROOT
