@<TRIPOS>MOLECULE
MOL
  178   175     1     0     0
SMALL
resp


@<TRIPOS>ATOM
      1 C1          4.4160    7.3290   -2.1670 c3        1 MOL     -0.472512
      2 C2          5.6660    6.8410   -1.3180 c         1 MOL      0.742623
      3 O1          5.8700    7.2610   -0.1960 o         1 MOL     -0.599065
      4 H1          3.6060    7.6080   -1.4930 hc        1 MOL      0.113208
      5 H2          4.7010    8.1930   -2.7690 hc        1 MOL      0.113208
      6 H3          4.0830    6.5240   -2.8210 hc        1 MOL      0.113208
      7 N1          6.3990    5.9410   -1.9240 n         1 MOL     -0.642982
      8 C3          7.5950    5.3780   -1.2670 c3        1 MOL      0.333101
      9 C4          7.2360    4.1460   -0.4860 c         1 MOL      0.449952
     10 O2          7.4730    2.9650   -0.7680 o         1 MOL     -0.479684
     11 C5          8.6740    5.1170   -2.2640 c3        1 MOL     -0.240390
     12 C6         10.0130    4.8060   -1.6440 c         1 MOL      0.730255
     13 O3         10.9900    4.5670   -2.4170 o         1 MOL     -0.739946
     14 O4         10.1540    4.7750   -0.3910 o         1 MOL     -0.739946
     15 H4          5.9980    5.4710   -2.7320 hn        1 MOL      0.320727
     16 H5          7.9950    6.1300   -0.5920 h1        1 MOL      0.025651
     17 H6          8.8910    5.9470   -2.9340 hc        1 MOL      0.015191
     18 H7          8.5040    4.2520   -2.8940 hc        1 MOL      0.015191
     19 N2          6.5810    4.4480    0.6660 n         1 MOL     -0.598919
     20 C7          6.0040    3.5050    1.6020 c3        1 MOL      0.625956
     21 C8          4.4900    3.5690    1.6340 c         1 MOL      0.306695
     22 O5          3.8120    4.4760    1.1200 o         1 MOL     -0.502238
     23 C9          6.6780    3.7880    3.0230 c3        1 MOL     -0.462405
     24 H8          6.4840    5.4410    0.8500 hn        1 MOL      0.289769
     25 H9          6.2870    2.5000    1.2700 h1        1 MOL     -0.034367
     26 H10         6.4530    3.0620    3.8010 hc        1 MOL      0.104470
     27 H11         7.7650    3.8450    2.9990 hc        1 MOL      0.104470
     28 H12         6.3530    4.7560    3.4100 hc        1 MOL      0.104470
     29 N3          3.7980    2.6130    2.2470 n         1 MOL     -0.368842
     30 C10         4.2790    1.3610    2.8310 c3        1 MOL      0.104302
     31 C11         4.5940    0.3600    1.7110 c         1 MOL      0.284047
     32 O6          3.9780    0.3060    0.6260 o         1 MOL     -0.400265
     33 C12         3.3840    0.8640    3.9880 c3        1 MOL     -0.359117
     34 C13         1.8900    0.8290    3.6210 c         1 MOL      0.868243
     35 O7          1.4350    0.7690    2.4310 o         1 MOL     -0.737360
     36 O8          1.0520    0.9280    4.5330 o         1 MOL     -0.737360
     37 H13         2.7960    2.6580    2.0870 hn        1 MOL      0.291964
     38 H14         5.2240    1.5340    3.3530 h1        1 MOL      0.017108
     39 H15         3.3860    1.5640    4.8270 hc        1 MOL      0.084274
     40 H16         3.6420   -0.1590    4.2610 hc        1 MOL      0.084274
     41 N4          5.4320   -0.5410    2.0950 n         1 MOL     -0.100079
     42 C14         5.8790   -1.6680    1.3830 c3        1 MOL     -0.275710
     43 C15         7.3570   -1.6170    0.8770 c         1 MOL      0.801924
     44 O9          8.1290   -0.7500    1.2340 o         1 MOL     -0.563408
     45 H17         5.7640   -0.4280    3.0440 hn        1 MOL      0.218177
     46 H18         5.1840   -1.7960    0.5490 h1        1 MOL      0.073827
     47 H19         5.8150   -2.5050    2.0800 h1        1 MOL      0.073827
     48 N5          7.7970   -2.5970    0.0760 n         1 MOL     -0.709367
     49 C16         7.1480   -3.7840   -0.4190 c3        1 MOL      0.268006
     50 C17         6.0430   -3.5180   -1.5520 c         1 MOL      0.625324
     51 O10         6.2900   -2.7350   -2.4380 o         1 MOL     -0.519805
     52 C18         8.2020   -4.7850   -0.8880 c3        1 MOL     -0.366934
     53 C19         7.7400   -6.1630   -1.4470 c         1 MOL      0.673467
     54 N6          7.9540   -7.2720   -0.7850 n         1 MOL     -0.782793
     55 O11         7.0910   -6.2020   -2.4690 o         1 MOL     -0.538869
     56 H20         8.7520   -2.4280   -0.2310 hn        1 MOL      0.364621
     57 H21         6.6590   -4.2890    0.4170 h1        1 MOL     -0.021997
     58 H22         8.8990   -5.0600   -0.0990 hc        1 MOL      0.107591
     59 H23         8.7330   -4.2300   -1.6660 hc        1 MOL      0.107591
     60 H24         8.4510   -7.2900    0.0980 hn        1 MOL      0.361145
     61 H25         7.4910   -8.1000   -1.1340 hn        1 MOL      0.361145
     62 N7          4.8830   -4.1350   -1.4430 n         1 MOL     -0.543927
     63 C20         3.8620   -4.0870   -2.5290 c3        1 MOL      0.292239
     64 C21         2.5070   -4.7390   -2.2930 c         1 MOL      0.368668
     65 O12         2.1850   -5.7360   -2.9030 o         1 MOL     -0.545086
     66 H26         4.8780   -4.9010   -0.7880 hn        1 MOL      0.249924
     67 H27         4.2960   -4.5220   -3.4250 h1        1 MOL      0.017725
     68 H28         3.6860   -3.0610   -2.8280 h1        1 MOL      0.017725
     69 N8          1.6540   -4.2510   -1.3730 n         1 MOL     -0.138116
     70 C22         0.2540   -4.7510   -1.1300 c3        1 MOL      0.025091
     71 C23        -0.7290   -3.5660   -1.1420 c         1 MOL      0.211217
     72 O13        -0.3880   -2.4140   -0.7900 o         1 MOL     -0.455459
     73 C24         0.2150   -5.4920    0.1870 c3        1 MOL      0.360433
     74 C25         0.9040   -6.8360    0.2010 c3        1 MOL     -0.455692
     75 O14         0.7480   -4.6250    1.1140 oh        1 MOL     -0.674299
     76 H29         1.9450   -3.4730   -0.8030 hn        1 MOL      0.095116
     77 H30        -0.0890   -5.3450   -1.9710 h1        1 MOL      0.059936
     78 H31        -0.8510   -5.5900    0.4010 h1        1 MOL      0.008541
     79 H32         0.2990   -4.7610    1.9620 ho        1 MOL      0.411057
     80 H33         1.9630   -6.5820    0.1100 hc        1 MOL      0.118794
     81 H34         0.7930   -7.3650    1.1430 hc        1 MOL      0.118794
     82 H35         0.5630   -7.4780   -0.6150 hc        1 MOL      0.118794
     83 N9         -1.9510   -3.9920   -1.4250 n         1 MOL     -0.022856
     84 C26        -3.2050   -3.1970   -1.4600 c3        1 MOL     -0.082238
     85 C27        -4.0940   -3.4340   -0.2440 c         1 MOL      0.228964
     86 O15        -4.5680   -4.5550   -0.0330 o         1 MOL     -0.510807
     87 C28        -3.9990   -3.3110   -2.7920 c3        1 MOL      0.158521
     88 C29        -5.1930   -2.3140   -2.9270 c3        1 MOL     -0.227038
     89 C30        -3.0440   -3.2800   -4.0250 c3        1 MOL     -0.164867
     90 C31        -4.7390   -0.8190   -3.1200 c3        1 MOL     -0.145528
     91 H36        -2.0610   -4.9770   -1.6020 hn        1 MOL      0.197861
     92 H37        -2.9280   -2.1420   -1.4950 h1        1 MOL      0.140368
     93 H38        -4.3500   -4.3360   -2.8860 hc        1 MOL     -0.012574
     94 H39        -5.7530   -2.3300   -1.9970 hc        1 MOL      0.086952
     95 H40        -5.8620   -2.5940   -3.7440 hc        1 MOL      0.086952
     96 H41        -2.3730   -2.4240   -4.1310 hc        1 MOL      0.033307
     97 H42        -2.3680   -4.1320   -3.9110 hc        1 MOL      0.033307
     98 H43        -3.5670   -3.5460   -4.9450 hc        1 MOL      0.033307
     99 H44        -4.3260   -0.6990   -4.1200 hc        1 MOL      0.052091
    100 H45        -5.5770   -0.1480   -2.9090 hc        1 MOL      0.052091
    101 H46        -4.0500   -0.6220   -2.3020 hc        1 MOL      0.052091
    102 N10        -4.2450   -2.4370    0.6490 n         1 MOL     -0.075940
    103 C32        -4.9940   -2.6870    1.9820 c3        1 MOL      0.114454
    104 C33        -6.2090   -1.7020    2.1670 c         1 MOL      0.386269
    105 O16        -7.0220   -1.9080    3.0920 o         1 MOL     -0.540602
    106 C34        -3.9990   -2.4550    3.0910 c3        1 MOL      0.038113
    107 C35        -2.7310   -3.2490    2.9870 c         1 MOL      0.594153
    108 O17        -2.6430   -4.2860    3.7190 o         1 MOL     -0.692205
    109 O18        -1.7440   -2.8300    2.3460 o         1 MOL     -0.692205
    110 H47        -3.6840   -1.6030    0.6480 hn        1 MOL      0.109561
    111 H48        -5.3460   -3.7170    2.0480 h1        1 MOL      0.068031
    112 H49        -4.5390   -2.6790    4.0070 hc        1 MOL     -0.003440
    113 H50        -3.7040   -1.4080    3.0830 hc        1 MOL     -0.003440
    114 N11        -6.4310   -0.6610    1.2990 n         1 MOL     -0.493483
    115 C36        -7.5260    0.3220    1.3360 c3        1 MOL      0.535878
    116 C37        -7.1010    1.5770    0.5920 c         1 MOL      0.118815
    117 O19        -6.5210    1.3930   -0.4890 o         1 MOL     -0.348348
    118 C38        -8.8350   -0.4260    0.9560 c3        1 MOL     -0.183146
    119 C39        -9.1370   -0.3830   -0.5920 ca        1 MOL      0.067202
    120 C40        -8.4540   -1.1250   -1.5820 ca        1 MOL     -0.156642
    121 C41       -10.0810    0.5610   -1.0660 ca        1 MOL     -0.156642
    122 C42        -8.6240   -0.8550   -2.9140 ca        1 MOL     -0.131488
    123 C43       -10.4170    0.7100   -2.4490 ca        1 MOL     -0.131488
    124 C44        -9.6820   -0.0340   -3.3510 ca        1 MOL     -0.077179
    125 H51        -5.7940   -0.5340    0.5280 hn        1 MOL      0.251108
    126 H52        -7.7000    0.6020    2.3730 h1        1 MOL     -0.045008
    127 H53        -9.6190    0.0710    1.5280 hc        1 MOL      0.067091
    128 H54        -8.9270   -1.4620    1.2660 hc        1 MOL      0.067091
    129 H55        -7.7260   -1.8300   -1.2140 ha        1 MOL      0.104351
    130 H56       -10.5160    1.2170   -0.3290 ha        1 MOL      0.104351
    131 H57        -8.0660   -1.4170   -3.6560 ha        1 MOL      0.105310
    132 H58       -11.2020    1.3730   -2.7860 ha        1 MOL      0.105310
    133 H59        -9.8570    0.0340   -4.4160 ha        1 MOL      0.091332
    134 N12        -7.4290    2.7530    1.0940 n         1 MOL     -0.134912
    135 C45        -7.4910    3.9490    0.2600 c3        1 MOL      0.191836
    136 C46        -6.1210    4.5630   -0.1400 c         1 MOL      0.301281
    137 O20        -6.0810    5.7080   -0.5620 o         1 MOL     -0.510784
    138 C47        -8.4360    5.0020    1.0230 c3        1 MOL     -0.192279
    139 C48        -9.0440    4.1790    2.1750 c3        1 MOL      0.150547
    140 C49        -8.0540    3.0650    2.4180 c3        1 MOL     -0.113647
    141 H60        -8.0650    3.6350   -0.6240 h1        1 MOL      0.033773
    142 H61        -7.7990    5.7650    1.4880 hc        1 MOL      0.078241
    143 H62        -9.0700    5.5730    0.3360 hc        1 MOL      0.078241
    144 H63        -9.3140    4.7160    3.0830 hc        1 MOL     -0.029962
    145 H64        -9.9070    3.6960    1.7220 hc        1 MOL     -0.029962
    146 H65        -7.2300    3.4150    3.0400 h1        1 MOL      0.084157
    147 H66        -8.5080    2.2270    2.9370 h1        1 MOL      0.084157
    148 N13        -5.0460    3.7640   -0.1900 n         1 MOL     -0.160927
    149 C50        -3.7480    4.1700   -0.7230 c3        1 MOL     -0.250713
    150 C51        -3.7470    4.3860   -2.2280 c         1 MOL      0.564285
    151 O21        -3.0100    5.2110   -2.7230 o         1 MOL     -0.548835
    152 C52        -2.5780    3.1480   -0.2570 c3        1 MOL     -0.042188
    153 C53        -2.7500    1.6910   -0.8130 c3        1 MOL      0.198467
    154 C54        -1.8760    0.6220   -0.1180 c         1 MOL      0.575028
    155 O22        -0.6690    0.6760   -0.2890 o         1 MOL     -0.700890
    156 O23        -2.4040   -0.1830    0.6200 o         1 MOL     -0.700890
    157 H67        -5.0910    2.8490    0.2330 hn        1 MOL      0.176831
    158 H68        -3.5980    5.2120   -0.4150 h1        1 MOL      0.155336
    159 H69        -2.4410    3.1900    0.8200 hc        1 MOL      0.050569
    160 H70        -1.6250    3.5010   -0.6610 hc        1 MOL      0.050569
    161 H71        -2.6420    1.6550   -1.8940 hc        1 MOL     -0.067619
    162 H72        -3.7890    1.4110   -0.6570 hc        1 MOL     -0.067619
    163 N14        -4.6950    3.7870   -2.9350 n         1 MOL     -0.154930
    164 C55        -4.8120    3.9380   -4.4550 c3        1 MOL     -0.207158
    165 H73        -4.0300    3.3520   -4.9380 h1        1 MOL      0.094187
    166 H74        -5.7870    3.5800   -4.7820 h1        1 MOL      0.094187
    167 H75        -4.7000    4.9870   -4.7260 h1        1 MOL      0.094187
    168 H76        -5.2200    3.0870   -2.4290 hn        1 MOL      0.119239
    169 Ca1        -0.0850   -1.1640    1.4660 Ca        1 MOL      1.759811
    170 O24        -1.3880   -0.1810    3.5950 oh        1 MOL     -0.855171
    171 H77        -1.8780   -0.3810    4.3860 ho        1 MOL      0.401786
    172 H78        -0.6410    0.3380    3.9010 ho        1 MOL      0.401786
    173 O25         2.3250   -1.5590    0.4860 oh        1 MOL     -0.855171
    174 H79         2.8320   -2.2790    0.8760 ho        1 MOL      0.401786
    175 H80         2.9270   -0.8180    0.4880 ho        1 MOL      0.401786
    176 O26         1.6080   -2.2820    3.2700 oh        1 MOL     -0.855171
    177 H81         1.2970   -3.1860    3.3570 ho        1 MOL      0.401786
    178 H82         2.4750   -2.2820    3.6670 ho        1 MOL      0.401786
@<TRIPOS>BOND
     1    1    2 1   
     2    1    4 1   
     3    1    5 1   
     4    1    6 1   
     5    2    3 2   
     6    2    7 1   
     7    7    8 1   
     8    7   15 1   
     9    8    9 1   
    10    8   11 1   
    11    8   16 1   
    12    9   10 2   
    13    9   19 1   
    14   11   12 1   
    15   11   17 1   
    16   11   18 1   
    17   12   13 1   
    18   12   14 1   
    19   19   20 1   
    20   19   24 1   
    21   20   21 1   
    22   20   23 1   
    23   20   25 1   
    24   21   22 2   
    25   21   29 1   
    26   23   26 1   
    27   23   27 1   
    28   23   28 1   
    29   29   30 1   
    30   29   37 1   
    31   30   31 1   
    32   30   33 1   
    33   30   38 1   
    34   31   32 2   
    35   31   41 1   
    36   33   34 1   
    37   33   39 1   
    38   33   40 1   
    39   34   35 1   
    40   34   36 1   
    41   41   42 1   
    42   41   45 1   
    43   42   43 1   
    44   42   46 1   
    45   42   47 1   
    46   43   44 2   
    47   43   48 1   
    48   48   49 1   
    49   48   56 1   
    50   49   50 1   
    51   49   52 1   
    52   49   57 1   
    53   50   51 2   
    54   50   62 1   
    55   52   53 1   
    56   52   58 1   
    57   52   59 1   
    58   53   54 1   
    59   53   55 2   
    60   54   60 1   
    61   54   61 1   
    62   62   63 1   
    63   62   66 1   
    64   63   64 1   
    65   63   67 1   
    66   63   68 1   
    67   64   65 2   
    68   64   69 1   
    69   69   70 1   
    70   69   76 1   
    71   70   71 1   
    72   70   73 1   
    73   70   77 1   
    74   71   72 2   
    75   71   83 1   
    76   73   74 1   
    77   73   75 1   
    78   73   78 1   
    79   74   80 1   
    80   74   81 1   
    81   74   82 1   
    82   75   79 1   
    83   83   84 1   
    84   83   91 1   
    85   84   85 1   
    86   84   87 1   
    87   84   92 1   
    88   85   86 2   
    89   85  102 1   
    90   87   88 1   
    91   87   89 1   
    92   87   93 1   
    93   88   90 1   
    94   88   94 1   
    95   88   95 1   
    96   89   96 1   
    97   89   97 1   
    98   89   98 1   
    99   90   99 1   
   100   90  100 1   
   101   90  101 1   
   102  102  103 1   
   103  102  110 1   
   104  103  104 1   
   105  103  106 1   
   106  103  111 1   
   107  104  105 2   
   108  104  114 1   
   109  106  107 1   
   110  106  112 1   
   111  106  113 1   
   112  107  108 1   
   113  107  109 1   
   114  114  115 1   
   115  114  125 1   
   116  115  116 1   
   117  115  118 1   
   118  115  126 1   
   119  116  117 2   
   120  116  134 1   
   121  118  119 1   
   122  118  127 1   
   123  118  128 1   
   124  119  120 ar  
   125  119  121 ar  
   126  120  122 ar  
   127  120  129 1   
   128  121  123 ar  
   129  121  130 1   
   130  122  124 ar  
   131  122  131 1   
   132  123  124 ar  
   133  123  132 1   
   134  124  133 1   
   135  134  135 1   
   136  134  140 1   
   137  135  136 1   
   138  135  138 1   
   139  135  141 1   
   140  136  137 2   
   141  136  148 1   
   142  138  139 1   
   143  138  142 1   
   144  138  143 1   
   145  139  140 1   
   146  139  144 1   
   147  139  145 1   
   148  140  146 1   
   149  140  147 1   
   150  148  149 1   
   151  148  157 1   
   152  149  150 1   
   153  149  152 1   
   154  149  158 1   
   155  150  151 2   
   156  150  163 1   
   157  152  153 1   
   158  152  159 1   
   159  152  160 1   
   160  153  154 1   
   161  153  161 1   
   162  153  162 1   
   163  154  155 1   
   164  154  156 1   
   165  163  164 1   
   166  163  168 1   
   167  164  165 1   
   168  164  166 1   
   169  164  167 1   
   170  170  171 1   
   171  170  172 1   
   172  173  174 1   
   173  173  175 1   
   174  176  177 1   
   175  176  178 1   
@<TRIPOS>SUBSTRUCTURE
     1 MOL         1 TEMP              0 ****  ****    0 ROOT
