@<TRIPOS>MOLECULE
MOL
  175   173     1     0     0
SMALL
resp


@<TRIPOS>ATOM
      1 C1         -6.7410    7.7510    1.1420 c3        1 MOL     -0.316735
      2 C2         -7.7330    6.8480    0.3750 c         1 MOL      0.707761
      3 O1         -7.8720    7.0250   -0.8410 o         1 MOL     -0.582796
      4 H1         -7.2960    8.4830    1.7290 hc        1 MOL      0.072677
      5 H2         -6.1330    7.1390    1.8070 hc        1 MOL      0.072677
      6 H3         -6.0970    8.2680    0.4320 hc        1 MOL      0.072677
      7 N1         -8.4000    5.8740    1.0660 n         1 MOL     -0.583324
      8 C3         -9.4630    5.0160    0.4830 c3        1 MOL      0.327976
      9 C4         -8.9470    3.7360   -0.2490 c         1 MOL      0.523713
     10 O2         -9.8030    2.9950   -0.7790 o         1 MOL     -0.550134
     11 C5        -10.5810    4.8480    1.5900 c3        1 MOL     -0.280955
     12 C6        -11.9610    4.7060    1.0480 c         1 MOL      0.748371
     13 O3        -12.4430    5.6450    0.4160 o         1 MOL     -0.727939
     14 O4        -12.6380    3.6700    1.3050 o         1 MOL     -0.727939
     15 H4         -8.2250    5.8220    2.0570 hn        1 MOL      0.276974
     16 H5         -9.9900    5.5770   -0.2820 h1        1 MOL      0.009854
     17 H6        -10.5040    5.7230    2.2310 hc        1 MOL      0.022683
     18 H7        -10.3290    3.8930    2.0560 hc        1 MOL      0.022683
     19 N2         -7.6710    3.6020   -0.2920 n         1 MOL     -0.606657
     20 C7         -6.9290    2.5870   -1.1300 c3        1 MOL      0.513286
     21 C8         -5.5680    2.1550   -0.5700 c         1 MOL      0.391610
     22 O5         -5.0100    2.9500    0.1570 o         1 MOL     -0.534985
     23 C9         -6.7070    3.1910   -2.5290 c3        1 MOL     -0.363782
     24 H8         -7.1090    4.3140    0.1490 hn        1 MOL      0.261347
     25 H9         -7.5310    1.6940   -1.2640 h1        1 MOL     -0.061011
     26 H10        -6.0680    2.4570   -3.0240 hc        1 MOL      0.092363
     27 H11        -7.6320    3.2390   -3.0950 hc        1 MOL      0.092363
     28 H12        -6.1950    4.1420   -2.4520 hc        1 MOL      0.092363
     29 N3         -5.1510    0.9020   -0.5800 n         1 MOL     -0.310298
     30 C10        -5.6430   -0.3370   -1.2510 c3        1 MOL     -0.218837
     31 C11        -5.8160   -1.5280   -0.3640 c         1 MOL      0.549105
     32 O6         -5.0390   -1.6590    0.6330 o         1 MOL     -0.527066
     33 C12        -4.7200   -0.6310   -2.3910 c3        1 MOL     -0.032421
     34 C13        -3.1620   -0.6790   -1.9990 c         1 MOL      0.711274
     35 O7         -2.3100   -1.1440   -2.7760 o         1 MOL     -0.749660
     36 O8         -2.7380   -0.2340   -0.8720 o         1 MOL     -0.749660
     37 H13        -4.2850    0.7430   -0.0800 hn        1 MOL      0.293514
     38 H14        -6.6230   -0.1640   -1.6870 h1        1 MOL      0.118370
     39 H15        -4.8740    0.0930   -3.1780 hc        1 MOL      0.017122
     40 H16        -4.9820   -1.5820   -2.8660 hc        1 MOL      0.017122
     41 N4         -6.7840   -2.3960   -0.6690 n         1 MOL     -0.409486
     42 C14        -6.9580   -3.6650    0.0400 c3        1 MOL      0.131889
     43 C15        -6.8060   -4.8550   -0.8940 c         1 MOL      0.497526
     44 O9         -7.7620   -5.5410   -1.2200 o         1 MOL     -0.528798
     45 H17        -7.2480   -2.2620   -1.5590 hn        1 MOL      0.292905
     46 H18        -8.0050   -3.6350    0.3530 h1        1 MOL      0.028853
     47 H19        -6.3000   -3.7880    0.9000 h1        1 MOL      0.028853
     48 N5         -5.5580   -5.2360   -1.3570 n         1 MOL     -0.532747
     49 C16        -4.2540   -4.7270   -0.8960 c3        1 MOL      0.056965
     50 C17        -3.8320   -5.3730    0.4370 c         1 MOL      0.546180
     51 O10        -3.4670   -6.5420    0.5350 o         1 MOL     -0.535964
     52 C18        -3.2250   -4.9870   -2.0200 c3        1 MOL     -0.365094
     53 C19        -1.8920   -4.3230   -1.8200 c         1 MOL      0.680025
     54 N6         -0.9420   -4.5660   -2.6490 n         1 MOL     -0.718532
     55 O11        -1.6920   -3.5240   -0.8620 o         1 MOL     -0.578001
     56 H20        -5.4700   -6.0380   -1.9580 hn        1 MOL      0.329827
     57 H21        -4.3170   -3.6470   -0.7960 h1        1 MOL      0.132194
     58 H22        -3.6420   -4.6670   -2.9800 hc        1 MOL      0.116768
     59 H23        -3.0240   -6.0490   -1.9660 hc        1 MOL      0.116768
     60 H24        -1.0380   -5.3640   -3.2590 hn        1 MOL      0.356810
     61 H25        -0.0340   -4.1640   -2.4720 hn        1 MOL      0.356810
     62 N7         -3.7550   -4.5320    1.4600 n         1 MOL     -0.355427
     63 C20        -3.0660   -4.7650    2.7270 c3        1 MOL     -0.022999
     64 C21        -1.5950   -5.2550    2.6500 c         1 MOL      0.431566
     65 O12        -1.1530   -5.9330    3.5630 o         1 MOL     -0.588515
     66 H26        -4.0030   -3.5760    1.2880 hn        1 MOL      0.255585
     67 H27        -3.6220   -5.3780    3.4330 h1        1 MOL      0.070345
     68 H28        -3.0770   -3.7860    3.2020 h1        1 MOL      0.070345
     69 N8         -0.7800   -4.9070    1.6940 n         1 MOL     -0.032447
     70 C22         0.6860   -5.0580    1.7820 c3        1 MOL     -0.065454
     71 C23         1.5150   -3.7750    1.6000 c         1 MOL      0.396138
     72 O13         1.0500   -2.7890    0.9780 o         1 MOL     -0.537341
     73 C24         1.1960   -6.1520    0.7880 c3        1 MOL      0.354220
     74 C25         0.6200   -7.5680    1.1140 c3        1 MOL     -0.253500
     75 O14         0.9490   -5.8360   -0.5980 oh        1 MOL     -0.677868
     76 H29        -1.2360   -4.3870    0.9530 hn        1 MOL      0.133628
     77 H30         0.9700   -5.4830    2.7400 h1        1 MOL      0.063941
     78 H31         2.2470   -6.3370    1.0240 h1        1 MOL     -0.019047
     79 H32         1.6900   -5.3030   -0.9120 ho        1 MOL      0.461888
     80 H33        -0.4690   -7.6580    1.1640 hc        1 MOL      0.059263
     81 H34         0.9290   -8.3270    0.4000 hc        1 MOL      0.059263
     82 H35         1.0510   -7.8620    2.0780 hc        1 MOL      0.059263
     83 N9          2.7170   -3.6740    2.2470 n         1 MOL     -0.405177
     84 C26         3.6760   -2.5490    2.0740 c3        1 MOL      0.131798
     85 C27         4.4160   -2.9190    0.8330 c         1 MOL      0.285129
     86 O15         5.1470   -3.9100    0.7380 o         1 MOL     -0.523185
     87 C28         4.4950   -2.2460    3.3620 c3        1 MOL      0.022910
     88 C29         5.4130   -1.0210    3.2220 c3        1 MOL     -0.017426
     89 C30         3.5710   -2.0090    4.5970 c3        1 MOL     -0.228230
     90 C31         4.8430    0.3640    2.8620 c3        1 MOL     -0.375479
     91 H36         3.0750   -4.5290    2.6480 hn        1 MOL      0.284789
     92 H37         3.0890   -1.6680    1.8220 h1        1 MOL      0.140504
     93 H38         5.0940   -3.1320    3.5470 hc        1 MOL      0.016799
     94 H39         6.2330   -1.2590    2.5530 hc        1 MOL      0.019243
     95 H40         5.9430   -0.9140    4.1650 hc        1 MOL      0.019243
     96 H41         2.8780   -1.1860    4.4450 hc        1 MOL      0.058632
     97 H42         2.9660   -2.8930    4.7790 hc        1 MOL      0.058632
     98 H43         4.1240   -1.8630    5.5270 hc        1 MOL      0.058632
     99 H44         5.7380    0.9890    2.8410 hc        1 MOL      0.111226
    100 H45         4.3770    0.3850    1.8820 hc        1 MOL      0.111226
    101 H46         4.0920    0.6640    3.6030 hc        1 MOL      0.111226
    102 N10         4.1170   -2.0560   -0.1610 n         1 MOL     -0.117577
    103 C32         4.6940   -2.2340   -1.4850 c3        1 MOL      0.081894
    104 C33         5.7760   -1.1990   -1.8800 c         1 MOL      0.563992
    105 O16         6.5090   -1.3820   -2.8370 o         1 MOL     -0.544242
    106 C34         3.6100   -2.4620   -2.5610 c3        1 MOL     -0.175427
    107 C35         2.4730   -3.3270   -2.1240 c         1 MOL      0.717360
    108 O17         2.7600   -4.5640   -1.9600 o         1 MOL     -0.687632
    109 O18         1.3060   -2.8910   -1.8990 o         1 MOL     -0.687632
    110 H47         3.4250   -1.3260   -0.0670 hn        1 MOL      0.182948
    111 H48         5.3060   -3.1390   -1.5390 h1        1 MOL      0.071961
    112 H49         4.0840   -2.8020   -3.4810 hc        1 MOL      0.030269
    113 H50         3.1110   -1.5120   -2.7520 hc        1 MOL      0.030269
    114 N11         5.8940   -0.1060   -1.0870 n         1 MOL     -0.596523
    115 C36         7.0900    0.7930   -1.0390 c3        1 MOL      0.293743
    116 C37         6.7860    2.1440   -0.3840 c         1 MOL      0.482632
    117 O19         6.1810    2.2360    0.7310 o         1 MOL     -0.563836
    118 C38         8.2570    0.1920   -0.1600 c3        1 MOL     -0.290000
    119 C39         9.4250    1.1230   -0.0870 ca        1 MOL      0.034169
    120 C40         9.5340    2.0460    0.9640 ca        1 MOL     -0.115724
    121 C41        10.3040    1.2340   -1.1920 ca        1 MOL     -0.115724
    122 C42        10.5780    2.9790    1.0310 ca        1 MOL     -0.176613
    123 C43        11.3190    2.2010   -1.1490 ca        1 MOL     -0.176613
    124 C44        11.3610    3.1250   -0.1290 ca        1 MOL     -0.013975
    125 H51         5.2570    0.0620   -0.3270 hn        1 MOL      0.253632
    126 H52         7.4110    0.9430   -2.0720 h1        1 MOL      0.018476
    127 H53         8.5780   -0.7740   -0.5400 hc        1 MOL      0.126237
    128 H54         7.9620    0.0610    0.8820 hc        1 MOL      0.126237
    129 H55         8.7950    2.0120    1.7540 ha        1 MOL      0.118192
    130 H56        10.1620    0.5770   -2.0420 ha        1 MOL      0.118192
    131 H57        10.7690    3.6430    1.8650 ha        1 MOL      0.114284
    132 H58        12.0030    2.4390   -1.9490 ha        1 MOL      0.114284
    133 H59        12.1440    3.8630   -0.1820 ha        1 MOL      0.070450
    134 N12         7.0330    3.2680   -1.1170 n         1 MOL     -0.234292
    135 C45         6.8450    4.6070   -0.5470 c3        1 MOL      0.204306
    136 C46         5.3410    5.0290   -0.3260 c         1 MOL      0.387904
    137 O20         5.0380    6.1970   -0.1400 o         1 MOL     -0.570217
    138 C47         7.5240    5.6150   -1.4790 c3        1 MOL     -0.113253
    139 C48         8.3520    4.7050   -2.3930 c3        1 MOL     -0.165925
    140 C49         7.5450    3.4480   -2.4450 c3        1 MOL      0.096032
    141 H60         7.3030    4.6360    0.4400 h1        1 MOL      0.041780
    142 H61         6.7600    6.1660   -2.0360 hc        1 MOL      0.063491
    143 H62         8.0770    6.3500   -0.8790 hc        1 MOL      0.063491
    144 H63         8.4140    5.1690   -3.3710 hc        1 MOL      0.054272
    145 H64         9.2230    4.5430   -1.7570 hc        1 MOL      0.054272
    146 H65         6.7390    3.4980   -3.1760 h1        1 MOL      0.037938
    147 H66         8.2340    2.6710   -2.7460 h1        1 MOL      0.037938
    148 N13         4.3740    4.1140   -0.1910 n         1 MOL     -0.243403
    149 C50         2.9750    4.4870    0.0120 c3        1 MOL     -0.018631
    150 C51         2.6870    5.2420    1.3120 c         1 MOL      0.417884
    151 O21         1.5680    5.7490    1.4760 o         1 MOL     -0.509434
    152 C52         2.0260    3.3050   -0.1740 c3        1 MOL     -0.151974
    153 C53         2.4600    2.0930    0.6030 c3        1 MOL      0.425078
    154 C54         1.5430    0.9210    0.4030 c         1 MOL      0.532071
    155 O22         0.2950    0.9720    0.6880 o         1 MOL     -0.706597
    156 O23         2.0170   -0.1960    0.0480 o         1 MOL     -0.706597
    157 H67         4.6340    3.1400   -0.3090 hn        1 MOL      0.101636
    158 H68         2.6660    5.1310   -0.8100 h1        1 MOL      0.119821
    159 H69         2.0180    3.0770   -1.2460 hc        1 MOL      0.035781
    160 H70         1.0190    3.6120    0.1110 hc        1 MOL      0.035781
    161 H71         2.6540    2.2760    1.6630 hc        1 MOL     -0.105479
    162 H72         3.3710    1.6640    0.2020 hc        1 MOL     -0.105479
    163 N14         3.6360    5.2410    2.2820 n         1 MOL     -0.110884
    164 C55         3.4450    5.9240    3.5300 c3        1 MOL     -0.125617
    165 H73         2.6140    6.6240    3.4370 h1        1 MOL      0.063516
    166 H74         3.2230    5.1980    4.3120 h1        1 MOL      0.063516
    167 H75         4.3520    6.4710    3.7880 h1        1 MOL      0.063516
    168 H76         4.4950    4.7460    2.0870 hn        1 MOL      0.177955
    169 Ca1        -0.2670   -1.3330   -0.8010 Ca        1 MOL      1.706159
    170 O24         0.5570    0.4280   -2.6840 oh        1 MOL     -0.861950
    171 H77         0.6700    1.3760   -2.5980 ho        1 MOL      0.422267
    172 H78        -0.0370    0.3250   -3.4350 ho        1 MOL      0.422267
    173 O25        -2.2000   -1.6830    1.6320 oh        1 MOL     -0.861950
    174 H79        -2.1580   -1.0210    2.3200 ho        1 MOL      0.422267
    175 H80        -2.8580   -1.3480    1.0180 ho        1 MOL      0.422267
@<TRIPOS>BOND
     1    1    2 1   
     2    1    4 1   
     3    1    5 1   
     4    1    6 1   
     5    2    3 2   
     6    2    7 1   
     7    7    8 1   
     8    7   15 1   
     9    8    9 1   
    10    8   11 1   
    11    8   16 1   
    12    9   10 2   
    13    9   19 1   
    14   11   12 1   
    15   11   17 1   
    16   11   18 1   
    17   12   13 1   
    18   12   14 1   
    19   19   20 1   
    20   19   24 1   
    21   20   21 1   
    22   20   23 1   
    23   20   25 1   
    24   21   22 2   
    25   21   29 1   
    26   23   26 1   
    27   23   27 1   
    28   23   28 1   
    29   29   30 1   
    30   29   37 1   
    31   30   31 1   
    32   30   33 1   
    33   30   38 1   
    34   31   32 2   
    35   31   41 1   
    36   33   34 1   
    37   33   39 1   
    38   33   40 1   
    39   34   35 1   
    40   34   36 1   
    41   41   42 1   
    42   41   45 1   
    43   42   43 1   
    44   42   46 1   
    45   42   47 1   
    46   43   44 2   
    47   43   48 1   
    48   48   49 1   
    49   48   56 1   
    50   49   50 1   
    51   49   52 1   
    52   49   57 1   
    53   50   51 2   
    54   50   62 1   
    55   52   53 1   
    56   52   58 1   
    57   52   59 1   
    58   53   54 1   
    59   53   55 2   
    60   54   60 1   
    61   54   61 1   
    62   62   63 1   
    63   62   66 1   
    64   63   64 1   
    65   63   67 1   
    66   63   68 1   
    67   64   65 2   
    68   64   69 1   
    69   69   70 1   
    70   69   76 1   
    71   70   71 1   
    72   70   73 1   
    73   70   77 1   
    74   71   72 2   
    75   71   83 1   
    76   73   74 1   
    77   73   75 1   
    78   73   78 1   
    79   74   80 1   
    80   74   81 1   
    81   74   82 1   
    82   75   79 1   
    83   83   84 1   
    84   83   91 1   
    85   84   85 1   
    86   84   87 1   
    87   84   92 1   
    88   85   86 2   
    89   85  102 1   
    90   87   88 1   
    91   87   89 1   
    92   87   93 1   
    93   88   90 1   
    94   88   94 1   
    95   88   95 1   
    96   89   96 1   
    97   89   97 1   
    98   89   98 1   
    99   90   99 1   
   100   90  100 1   
   101   90  101 1   
   102  102  103 1   
   103  102  110 1   
   104  103  104 1   
   105  103  106 1   
   106  103  111 1   
   107  104  105 2   
   108  104  114 1   
   109  106  107 1   
   110  106  112 1   
   111  106  113 1   
   112  107  108 1   
   113  107  109 1   
   114  114  115 1   
   115  114  125 1   
   116  115  116 1   
   117  115  118 1   
   118  115  126 1   
   119  116  117 2   
   120  116  134 1   
   121  118  119 1   
   122  118  127 1   
   123  118  128 1   
   124  119  120 ar  
   125  119  121 ar  
   126  120  122 ar  
   127  120  129 1   
   128  121  123 ar  
   129  121  130 1   
   130  122  124 ar  
   131  122  131 1   
   132  123  124 ar  
   133  123  132 1   
   134  124  133 1   
   135  134  135 1   
   136  134  140 1   
   137  135  136 1   
   138  135  138 1   
   139  135  141 1   
   140  136  137 2   
   141  136  148 1   
   142  138  139 1   
   143  138  142 1   
   144  138  143 1   
   145  139  140 1   
   146  139  144 1   
   147  139  145 1   
   148  140  146 1   
   149  140  147 1   
   150  148  149 1   
   151  148  157 1   
   152  149  150 1   
   153  149  152 1   
   154  149  158 1   
   155  150  151 2   
   156  150  163 1   
   157  152  153 1   
   158  152  159 1   
   159  152  160 1   
   160  153  154 1   
   161  153  161 1   
   162  153  162 1   
   163  154  155 1   
   164  154  156 1   
   165  163  164 1   
   166  163  168 1   
   167  164  165 1   
   168  164  166 1   
   169  164  167 1   
   170  170  171 1   
   171  170  172 1   
   172  173  174 1   
   173  173  175 1   
@<TRIPOS>SUBSTRUCTURE
     1 MOL         1 TEMP              0 ****  ****    0 ROOT
