@<TRIPOS>MOLECULE
MOL
  191   184     1     0     0
SMALL
resp


@<TRIPOS>ATOM
      1 C1          2.8510    2.2040    3.6240 c3        1 MOL     -0.609317
      2 C2          3.8510    2.2990    2.5530 c         1 MOL      0.737790
      3 O1          3.7740    1.4710    1.6400 o         1 MOL     -0.469626
      4 H1          3.3400    1.9130    4.5530 hc        1 MOL      0.155892
      5 H2          2.3660    3.1710    3.7560 hc        1 MOL      0.155892
      6 H3          2.1040    1.4560    3.3590 hc        1 MOL      0.155892
      7 N1          4.7340    3.2670    2.5520 n         1 MOL     -0.604041
      8 C3          5.8430    3.4090    1.5890 c3        1 MOL      0.190945
      9 C4          6.6770    2.0820    1.4210 c         1 MOL      0.456158
     10 O2          7.2920    1.7720    0.4040 o         1 MOL     -0.496175
     11 C5          5.3670    4.0340    0.2510 c3        1 MOL     -0.188303
     12 C6          4.6070    5.4200    0.3010 c         1 MOL      0.668286
     13 O3          3.8770    5.7350    1.2830 o         1 MOL     -0.641806
     14 O4          4.7920    6.3410   -0.5830 o         1 MOL     -0.641806
     15 H4          4.6180    3.9210    3.3120 hn        1 MOL      0.319552
     16 H5          6.5290    4.1480    2.0120 h1        1 MOL      0.061772
     17 H6          4.6960    3.2490   -0.1170 hc        1 MOL      0.036677
     18 H7          6.2350    4.1300   -0.3920 hc        1 MOL      0.036677
     19 N2          6.7770    1.3640    2.4990 n         1 MOL     -0.443037
     20 C7          7.4870    0.1040    2.4830 c3        1 MOL      0.146960
     21 C8          6.7930   -0.9850    1.6390 c         1 MOL      0.451806
     22 O5          7.2990   -2.0280    1.2990 o         1 MOL     -0.597106
     23 C9          7.5640   -0.3920    3.9240 c3        1 MOL     -0.027300
     24 C10         8.3640   -1.6080    4.3220 c3        1 MOL     -0.132165
     25 C11         8.0690   -2.1070    5.7720 c3        1 MOL      0.133921
     26 C12         8.6070   -3.5780    6.0300 c3        1 MOL     -0.041055
     27 N3         10.0840   -3.6840    6.0270 n4        1 MOL     -0.150343
     28 H8          6.2660    1.6940    3.3040 hn        1 MOL      0.212581
     29 H9          8.5190    0.2110    2.1470 h1        1 MOL      0.079097
     30 H10         6.5110   -0.5520    4.1620 hc        1 MOL      0.028527
     31 H11         7.9810    0.4280    4.5180 hc        1 MOL      0.028527
     32 H12         9.4140   -1.3360    4.3010 hc        1 MOL      0.046756
     33 H13         8.1260   -2.4310    3.6470 hc        1 MOL      0.046756
     34 H14         7.0280   -2.1170    6.0820 hc        1 MOL      0.001975
     35 H15         8.5260   -1.5400    6.5860 hc        1 MOL      0.001975
     36 H16         8.2370   -4.3080    5.3110 hx        1 MOL      0.089416
     37 H17         8.2520   -3.9770    6.9860 hx        1 MOL      0.089416
     38 H18        10.5770   -3.4600    6.8800 hn        1 MOL      0.217326
     39 H19        10.3690   -4.6340    5.8000 hn        1 MOL      0.217326
     40 H20        10.5700   -3.2760    5.2530 hn        1 MOL      0.217326
     41 N4          5.5360   -0.8390    1.2250 n         1 MOL     -0.108456
     42 C13         4.7160   -1.8010    0.4680 c3        1 MOL     -0.088123
     43 C14         5.2150   -2.1110   -0.9140 c         1 MOL      0.678160
     44 O6          5.6030   -1.1890   -1.6250 o         1 MOL     -0.462802
     45 C15         3.2720   -1.2740    0.5280 c3        1 MOL     -0.053168
     46 C16         2.1800   -2.0620   -0.1920 c         1 MOL      0.644108
     47 O7          1.9910   -2.0430   -1.3920 o         1 MOL     -0.696449
     48 O8          1.3390   -2.6210    0.5420 o         1 MOL     -0.696449
     49 H21         5.1330    0.0660    1.4380 hn        1 MOL      0.035334
     50 H22         4.6710   -2.7610    0.9780 h1        1 MOL      0.018371
     51 H23         3.2240   -0.3290   -0.0180 hc        1 MOL      0.048260
     52 H24         2.9230   -1.1310    1.5580 hc        1 MOL      0.048260
     53 N5          5.0360   -3.3780   -1.3890 n         1 MOL     -0.414344
     54 C17         5.3810   -3.7940   -2.7000 c3        1 MOL     -0.301021
     55 C18         4.7320   -3.0820   -3.9320 c         1 MOL      0.554743
     56 O9          5.1800   -3.1520   -5.0500 o         1 MOL     -0.545983
     57 H25         4.6130   -4.1210   -0.8400 hn        1 MOL      0.304722
     58 H26         4.9070   -4.7770   -2.6890 h1        1 MOL      0.141806
     59 H27         6.4640   -3.8560   -2.6180 h1        1 MOL      0.141806
     60 N6          3.5730   -2.4120   -3.7210 n         1 MOL     -0.121272
     61 C19         2.9500   -1.4910   -4.7460 c3        1 MOL     -0.168427
     62 C20         3.1110   -0.0080   -4.4180 c         1 MOL      0.574712
     63 O10         2.6690    0.8860   -5.2340 o         1 MOL     -0.550384
     64 C21         1.3910   -1.7730   -4.7180 c3        1 MOL     -0.281805
     65 C22         0.9890   -3.2180   -4.9240 c         1 MOL      0.797371
     66 N7          1.2090   -3.8460   -6.0250 n         1 MOL     -0.807625
     67 O11         0.4040   -3.7930   -3.9780 o         1 MOL     -0.736672
     68 H28         3.2760   -2.2830   -2.7610 hn        1 MOL      0.014816
     69 H29         3.3040   -1.6900   -5.7550 h1        1 MOL      0.127285
     70 H30         0.9370   -1.1400   -5.4850 hc        1 MOL      0.075692
     71 H31         0.9440   -1.4190   -3.7880 hc        1 MOL      0.075692
     72 H32         1.7340   -3.3050   -6.6990 hn        1 MOL      0.398269
     73 H33         0.9320   -4.8130   -6.1150 hn        1 MOL      0.398269
     74 N8          3.8470    0.3080   -3.3870 n         1 MOL     -0.201939
     75 C23         4.1760    1.6920   -2.9550 c3        1 MOL     -0.168025
     76 C24         2.8780    2.5150   -2.5280 c         1 MOL      0.500523
     77 O12         2.5030    3.3810   -3.3790 o         1 MOL     -0.491266
     78 H34         4.2080   -0.3820   -2.7520 hn        1 MOL      0.166085
     79 H35         4.5660    2.2360   -3.8190 h1        1 MOL      0.109737
     80 H36         4.8570    1.6130   -2.1100 h1        1 MOL      0.109737
     81 N9          2.2850    2.2000   -1.3630 n         1 MOL     -0.430682
     82 C25         0.9920    2.7830   -0.9280 c3        1 MOL      0.116550
     83 C26         0.0700    2.0030   -0.0680 c         1 MOL      0.348416
     84 O13         0.2870    0.8530    0.0780 o         1 MOL     -0.514701
     85 C27         1.3720    4.2050   -0.3210 c3        1 MOL     -0.050088
     86 C28         0.3180    5.2620   -0.2460 ca        1 MOL     -0.017348
     87 C29        -0.1920    5.7830   -1.4720 ca        1 MOL     -0.043924
     88 C30        -0.1150    5.7770    1.0070 ca        1 MOL     -0.043924
     89 C31        -1.1970    6.7750   -1.3740 ca        1 MOL     -0.368398
     90 C32        -1.0170    6.8720    1.1070 ca        1 MOL     -0.368398
     91 C33        -1.4900    7.3600   -0.1210 ca        1 MOL      0.450261
     92 O14        -2.3900    8.3370   -0.0710 oh        1 MOL     -0.517529
     93 H37         2.7450    1.5640   -0.7410 hn        1 MOL      0.369044
     94 H38         0.4200    3.0520   -1.8190 h1        1 MOL      0.014483
     95 H39         2.1560    4.6320   -0.9440 hc        1 MOL      0.070100
     96 H40         1.7580    4.0690    0.6940 hc        1 MOL      0.070100
     97 H41         0.1440    5.4850   -2.4450 ha        1 MOL      0.123281
     98 H42         0.3530    5.2810    1.8410 ha        1 MOL      0.123281
     99 H43        -1.5360    7.2250   -2.2990 ha        1 MOL      0.170295
    100 H44        -1.3120    7.3580    2.0280 ha        1 MOL      0.170295
    101 H45        -2.4240    8.6360    0.8380 ho        1 MOL      0.369905
    102 N10        -1.0440    2.6060    0.4900 n         1 MOL     -0.038836
    103 C34        -2.1290    1.8890    1.1560 c3        1 MOL     -0.441824
    104 C35        -3.2080    1.3840    0.2040 c         1 MOL      0.594439
    105 O15        -4.1450    0.7090    0.5920 o         1 MOL     -0.536560
    106 C36        -2.8180    2.8170    2.2040 c3        1 MOL      0.156310
    107 C37        -3.5500    2.0810    3.3280 c3        1 MOL      0.012299
    108 C38        -3.8370    3.8920    1.5890 c3        1 MOL     -0.103925
    109 C39        -3.9090    3.0210    4.4870 c3        1 MOL     -0.098262
    110 H46        -1.1980    3.6090    0.4990 hn        1 MOL      0.047675
    111 H47        -1.6720    1.0960    1.7410 h1        1 MOL      0.211232
    112 H48        -2.0380    3.4350    2.6510 hc        1 MOL     -0.007590
    113 H49        -2.9360    1.2340    3.6610 hc        1 MOL      0.026763
    114 H50        -4.5050    1.7010    2.9680 hc        1 MOL      0.026763
    115 H51        -4.1070    4.5970    2.3700 hc        1 MOL      0.014422
    116 H52        -3.3450    4.5060    0.8310 hc        1 MOL      0.014422
    117 H53        -4.7010    3.4390    1.0970 hc        1 MOL      0.014422
    118 H54        -3.2320    3.8510    4.6760 hc        1 MOL      0.027310
    119 H55        -4.9680    3.2660    4.3930 hc        1 MOL      0.027310
    120 H56        -3.8220    2.5530    5.4630 hc        1 MOL      0.027310
    121 N11        -3.0090    1.6590   -1.1030 n         1 MOL     -0.134039
    122 C40        -3.8190    1.1190   -2.1890 c3        1 MOL     -0.103439
    123 C41        -5.3050    1.6180   -2.3070 c         1 MOL      0.356061
    124 O16        -6.0210    1.0880   -3.1770 o         1 MOL     -0.478467
    125 C42        -3.1380    1.2520   -3.5950 c3        1 MOL      0.195997
    126 O17        -1.8700    0.6360   -3.4390 oh        1 MOL     -0.639268
    127 H57        -2.4790    2.4700   -1.3880 hn        1 MOL      0.161802
    128 H58        -3.8610    0.0510   -2.0250 h1        1 MOL      0.152297
    129 H59        -3.0410    2.2680   -3.9690 h1        1 MOL      0.044936
    130 H60        -3.6430    0.6890   -4.3670 h1        1 MOL      0.044936
    131 H61        -1.3270    0.9100   -4.1750 ho        1 MOL      0.440186
    132 N12        -5.7220    2.5940   -1.4680 n         1 MOL     -0.235159
    133 C43        -7.0990    2.9290   -1.1050 c3        1 MOL      0.114038
    134 C44        -7.8940    1.5920   -0.8030 c         1 MOL      0.550081
    135 O18        -9.0940    1.3900   -1.2090 o         1 MOL     -0.538493
    136 C45        -7.7940    3.7530   -2.2370 c3        1 MOL     -0.326211
    137 H62        -5.0150    3.1900   -1.0510 hn        1 MOL      0.178366
    138 H63        -7.0050    3.5310   -0.2090 h1        1 MOL      0.089290
    139 H64        -8.7840    4.1120   -1.9730 hc        1 MOL      0.095028
    140 H65        -7.3980    4.7690   -2.2630 hc        1 MOL      0.095028
    141 H66        -7.7600    3.3350   -3.2460 hc        1 MOL      0.095028
    142 N13        -7.2670    0.6720   -0.1030 n         1 MOL     -0.732022
    143 C46        -7.7230   -0.7410    0.0620 c3        1 MOL      0.546354
    144 C47        -7.2570   -1.4230    1.3650 c         1 MOL      0.433996
    145 O19        -6.3730   -1.0030    2.1760 o         1 MOL     -0.430182
    146 C48        -7.2860   -1.5110   -1.2170 c3        1 MOL     -0.570174
    147 H67        -6.3140    0.9000    0.1260 hn        1 MOL      0.293810
    148 H68        -8.8060   -0.6530    0.1280 h1        1 MOL     -0.003264
    149 H69        -7.3790   -0.8970   -2.1170 hc        1 MOL      0.157296
    150 H70        -6.2520   -1.8300   -1.0880 hc        1 MOL      0.157296
    151 H71        -7.9520   -2.3600   -1.3260 hc        1 MOL      0.157296
    152 N14        -7.9950   -2.4930    1.6760 n         1 MOL     -0.489544
    153 C49        -7.8910   -3.3780    2.8610 c3        1 MOL      0.034208
    154 C50        -8.1280   -2.5740    4.1220 c         1 MOL      0.404803
    155 O20        -7.5260   -2.7690    5.1870 o         1 MOL     -0.481495
    156 C51        -6.4760   -4.0810    2.9000 c3        1 MOL      0.247626
    157 C52        -6.0160   -4.7470    1.6270 c3        1 MOL     -0.147206
    158 C53        -4.6210   -5.4890    1.7090 c         1 MOL      0.711047
    159 O21        -4.1220   -5.8670    2.8250 o         1 MOL     -0.720472
    160 O22        -4.0670   -5.7450    0.6220 o         1 MOL     -0.720472
    161 H72        -8.8430   -2.5570    1.1320 hn        1 MOL      0.252598
    162 H73        -8.6570   -4.1500    2.9070 h1        1 MOL      0.071238
    163 H74        -6.5770   -4.8090    3.7050 hc        1 MOL     -0.037441
    164 H75        -5.7040   -3.3750    3.2210 hc        1 MOL     -0.037441
    165 H76        -5.9440   -3.9630    0.8760 hc        1 MOL     -0.029094
    166 H77        -6.7960   -5.4460    1.3060 hc        1 MOL     -0.029094
    167 N15        -8.9300   -1.4780    3.9990 n         1 MOL     -0.366743
    168 C54        -9.0010   -0.3470    4.9360 c3        1 MOL     -0.064858
    169 H78        -8.7060   -0.6820    5.9310 h1        1 MOL      0.071772
    170 H79        -8.3270    0.4430    4.6050 h1        1 MOL      0.071772
    171 H80       -10.0220    0.0350    4.9690 h1        1 MOL      0.071772
    172 H81        -9.3630   -1.3390    3.0990 hn        1 MOL      0.232272
    173 Ca1        -0.2630   -3.4910   -1.2910 Ca        1 MOL      1.796584
    174 O23        -1.2630   -5.9570   -1.9100 oh        1 MOL     -0.851958
    175 H82        -1.3500   -6.1040   -2.8510 ho        1 MOL      0.422843
    176 H83        -1.6100   -6.7440   -1.5100 ho        1 MOL      0.422843
    177 O24        -0.9640   -0.8620   -1.4370 oh        1 MOL     -0.851958
    178 H84        -0.4320   -0.1780   -1.0370 ho        1 MOL      0.422843
    179 H85        -1.3980   -0.4370   -2.1730 ho        1 MOL      0.422843
    180 O25         1.8870   -4.9300   -1.8140 oh        1 MOL     -0.851958
    181 H86         2.1740   -5.3380   -2.6360 ho        1 MOL      0.422843
    182 H87         2.0370   -5.5930   -1.1460 ho        1 MOL      0.422843
    183 O26         0.3020   -5.4530    0.8380 oh        1 MOL     -0.851958
    184 H88        -0.0000   -6.3530    0.7000 ho        1 MOL      0.422843
    185 H89         0.0790   -5.2660    1.7520 ho        1 MOL      0.422843
    186 O27        -2.6400   -3.1270   -2.7370 oh        1 MOL     -0.851958
    187 H90        -2.6050   -3.1920   -3.6900 ho        1 MOL      0.422843
    188 H91        -3.4880   -3.4920   -2.5090 ho        1 MOL      0.422843
    189 O28        -1.9470   -2.9610    0.9240 oh        1 MOL     -0.851958
    190 H92        -1.9330   -3.7030    1.5270 ho        1 MOL      0.422843
    191 H93        -2.4800   -2.3060    1.3590 ho        1 MOL      0.422843
@<TRIPOS>BOND
     1    1    2 1   
     2    1    4 1   
     3    1    5 1   
     4    1    6 1   
     5    2    3 2   
     6    2    7 1   
     7    7    8 1   
     8    7   15 1   
     9    8    9 1   
    10    8   11 1   
    11    8   16 1   
    12    9   10 2   
    13    9   19 1   
    14   11   12 1   
    15   11   17 1   
    16   11   18 1   
    17   12   13 1   
    18   12   14 1   
    19   19   20 1   
    20   19   28 1   
    21   20   21 1   
    22   20   23 1   
    23   20   29 1   
    24   21   22 2   
    25   21   41 1   
    26   23   24 1   
    27   23   30 1   
    28   23   31 1   
    29   24   25 1   
    30   24   32 1   
    31   24   33 1   
    32   25   26 1   
    33   25   34 1   
    34   25   35 1   
    35   26   27 1   
    36   26   36 1   
    37   26   37 1   
    38   27   38 1   
    39   27   39 1   
    40   27   40 1   
    41   41   42 1   
    42   41   49 1   
    43   42   43 1   
    44   42   45 1   
    45   42   50 1   
    46   43   44 2   
    47   43   53 1   
    48   45   46 1   
    49   45   51 1   
    50   45   52 1   
    51   46   47 1   
    52   46   48 1   
    53   53   54 1   
    54   53   57 1   
    55   54   55 1   
    56   54   58 1   
    57   54   59 1   
    58   55   56 2   
    59   55   60 1   
    60   60   61 1   
    61   60   68 1   
    62   61   62 1   
    63   61   64 1   
    64   61   69 1   
    65   62   63 2   
    66   62   74 1   
    67   64   65 1   
    68   64   70 1   
    69   64   71 1   
    70   65   66 1   
    71   65   67 2   
    72   66   72 1   
    73   66   73 1   
    74   74   75 1   
    75   74   78 1   
    76   75   76 1   
    77   75   79 1   
    78   75   80 1   
    79   76   77 2   
    80   76   81 1   
    81   81   82 1   
    82   81   93 1   
    83   82   83 1   
    84   82   85 1   
    85   82   94 1   
    86   83   84 2   
    87   83  102 1   
    88   85   86 1   
    89   85   95 1   
    90   85   96 1   
    91   86   87 ar  
    92   86   88 ar  
    93   87   89 ar  
    94   87   97 1   
    95   88   90 ar  
    96   88   98 1   
    97   89   91 ar  
    98   89   99 1   
    99   90   91 ar  
   100   90  100 1   
   101   91   92 1   
   102   92  101 1   
   103  102  103 1   
   104  102  110 1   
   105  103  104 1   
   106  103  106 1   
   107  103  111 1   
   108  104  105 2   
   109  104  121 1   
   110  106  107 1   
   111  106  108 1   
   112  106  112 1   
   113  107  109 1   
   114  107  113 1   
   115  107  114 1   
   116  108  115 1   
   117  108  116 1   
   118  108  117 1   
   119  109  118 1   
   120  109  119 1   
   121  109  120 1   
   122  121  122 1   
   123  121  127 1   
   124  122  123 1   
   125  122  125 1   
   126  122  128 1   
   127  123  124 2   
   128  123  132 1   
   129  125  126 1   
   130  125  129 1   
   131  125  130 1   
   132  126  131 1   
   133  132  133 1   
   134  132  137 1   
   135  133  134 1   
   136  133  136 1   
   137  133  138 1   
   138  134  135 2   
   139  134  142 1   
   140  136  139 1   
   141  136  140 1   
   142  136  141 1   
   143  142  143 1   
   144  142  147 1   
   145  143  144 1   
   146  143  146 1   
   147  143  148 1   
   148  144  145 2   
   149  144  152 1   
   150  146  149 1   
   151  146  150 1   
   152  146  151 1   
   153  152  153 1   
   154  152  161 1   
   155  153  154 1   
   156  153  156 1   
   157  153  162 1   
   158  154  155 2   
   159  154  167 1   
   160  156  157 1   
   161  156  163 1   
   162  156  164 1   
   163  157  158 1   
   164  157  165 1   
   165  157  166 1   
   166  158  159 1   
   167  158  160 1   
   168  167  168 1   
   169  167  172 1   
   170  168  169 1   
   171  168  170 1   
   172  168  171 1   
   173  174  175 1   
   174  174  176 1   
   175  177  178 1   
   176  177  179 1   
   177  180  181 1   
   178  180  182 1   
   179  183  184 1   
   180  183  185 1   
   181  186  187 1   
   182  186  188 1   
   183  189  190 1   
   184  189  191 1   
@<TRIPOS>SUBSTRUCTURE
     1 MOL         1 TEMP              0 ****  ****    0 ROOT
