@<TRIPOS>MOLECULE
MOL
  195   189     1     0     0
SMALL
resp


@<TRIPOS>ATOM
      1 C1          4.8560   -1.2280   -2.9700 c3        1 MOL     -0.591128
      2 C2          3.8250   -1.7860   -1.9810 c         1 MOL      0.859802
      3 O1          2.7810   -1.2050   -1.8050 o         1 MOL     -0.509960
      4 H1          5.1480   -2.0100   -3.6700 hc        1 MOL      0.140513
      5 H2          4.4190   -0.3950   -3.5210 hc        1 MOL      0.140513
      6 H3          5.7340   -0.8830   -2.4240 hc        1 MOL      0.140513
      7 N1          4.0650   -2.9920   -1.3790 n         1 MOL     -0.744199
      8 C3          3.3070   -3.6730   -0.3730 c3        1 MOL     -0.116220
      9 C4          1.7980   -3.8510   -0.5400 c         1 MOL      0.931513
     10 O2          1.0220   -3.5740    0.3530 o         1 MOL     -0.581397
     11 C5          3.6410   -3.1110    1.0610 c3        1 MOL     -0.271553
     12 C6          5.2010   -3.0690    1.2080 c         1 MOL      0.755534
     13 O3          5.8730   -2.0100    1.0120 o         1 MOL     -0.719183
     14 O4          5.7130   -4.1090    1.6300 o         1 MOL     -0.719183
     15 H4          4.8680   -3.4910   -1.7300 hn        1 MOL      0.305242
     16 H5          3.7500   -4.6680   -0.3460 h1        1 MOL      0.123887
     17 H6          3.3760   -3.7950    1.8600 hc        1 MOL      0.093225
     18 H7          3.2640   -2.1030    1.2240 hc        1 MOL      0.093225
     19 N2          1.4710   -4.4430   -1.6580 n         1 MOL     -0.853137
     20 C7          0.0830   -4.9120   -2.0550 c3        1 MOL     -0.053416
     21 C8         -0.3540   -6.0910   -1.2590 c         1 MOL      0.607084
     22 O5          0.4320   -6.9790   -0.9400 o         1 MOL     -0.588625
     23 C9         -0.0960   -5.0800   -3.5760 c3        1 MOL      0.207127
     24 C10         0.8490   -6.1660   -4.1010 c3        1 MOL      0.162008
     25 C11         0.0950   -3.7040   -4.2550 c3        1 MOL     -0.042701
     26 C12         0.7050   -6.4420   -5.6130 c3        1 MOL     -0.333439
     27 H8          2.1480   -4.4970   -2.4110 hn        1 MOL      0.455609
     28 H9         -0.5980   -4.0880   -1.8170 h1        1 MOL      0.130938
     29 H10        -1.1110   -5.4240   -3.7980 hc        1 MOL     -0.018389
     30 H11         0.5870   -7.1340   -3.6770 hc        1 MOL     -0.039719
     31 H12         1.8540   -5.8910   -3.8130 hc        1 MOL     -0.039719
     32 H13        -0.2040   -3.8140   -5.2960 hc        1 MOL      0.000967
     33 H14        -0.6050   -2.9770   -3.8230 hc        1 MOL      0.000967
     34 H15         1.1270   -3.4030   -4.0770 hc        1 MOL      0.000967
     35 H16         1.0830   -7.4270   -5.9000 hc        1 MOL      0.068851
     36 H17        -0.3260   -6.5730   -5.9300 hc        1 MOL      0.068851
     37 H18         1.1780   -5.6800   -6.2330 hc        1 MOL      0.068851
     38 N3         -1.6660   -6.2260   -0.9810 n         1 MOL     -0.577667
     39 C13        -2.6880   -5.1790   -0.7990 c3        1 MOL      0.176472
     40 C14        -3.6200   -5.4640    0.3200 c         1 MOL      0.540608
     41 O6         -4.6370   -6.1960    0.1870 o         1 MOL     -0.547105
     42 C15        -3.4300   -4.7790   -2.0890 c3        1 MOL     -0.380857
     43 C16        -4.5040   -3.7380   -1.8350 c         1 MOL      0.738920
     44 O7         -4.5380   -3.0200   -0.8030 o         1 MOL     -0.698255
     45 O8         -5.3170   -3.6210   -2.7940 o         1 MOL     -0.698255
     46 H19        -1.8000   -7.1060   -0.5060 hn        1 MOL      0.297090
     47 H20        -2.1820   -4.2860   -0.4170 h1        1 MOL     -0.002227
     48 H21        -3.9170   -5.6910   -2.4180 hc        1 MOL      0.104244
     49 H22        -2.7610   -4.3980   -2.8650 hc        1 MOL      0.104244
     50 N4         -3.2600   -5.0260    1.4700 n         1 MOL     -0.276987
     51 C17        -3.9210   -5.3270    2.7440 c3        1 MOL     -0.412321
     52 C18        -5.2890   -4.7730    3.0630 c         1 MOL      0.737500
     53 O9         -6.1130   -5.3700    3.7660 o         1 MOL     -0.628803
     54 H23        -2.3330   -4.6210    1.5460 hn        1 MOL      0.307951
     55 H24        -3.2690   -5.0300    3.5680 h1        1 MOL      0.139462
     56 H25        -3.9870   -6.4140    2.7480 h1        1 MOL      0.139462
     57 N5         -5.6110   -3.6620    2.4310 n         1 MOL     -0.417625
     58 C19        -6.4700   -2.5720    2.9350 c3        1 MOL      0.081664
     59 C20        -7.4380   -2.0230    1.8790 c         1 MOL      0.407693
     60 O10        -8.5070   -1.5660    2.3490 o         1 MOL     -0.556771
     61 C21        -5.6330   -1.4530    3.3700 c3        1 MOL     -0.041520
     62 C22        -4.5170   -0.9950    2.4350 c         1 MOL      0.658393
     63 O11        -3.3660   -1.4720    2.5820 o         1 MOL     -0.684522
     64 O12        -4.8050   -0.0930    1.6080 o         1 MOL     -0.684522
     65 H26        -5.0570   -3.5190    1.5900 hn        1 MOL      0.178051
     66 H27        -7.0230   -2.8340    3.8350 h1        1 MOL      0.066554
     67 H28        -5.1440   -1.7760    4.2910 hc        1 MOL     -0.021518
     68 H29        -6.2520   -0.5860    3.6110 hc        1 MOL     -0.021518
     69 N6         -6.9960   -2.0510    0.5810 n         1 MOL     -0.322247
     70 C23        -7.8360   -1.5320   -0.4930 c3        1 MOL     -0.059576
     71 C24        -8.0650   -0.0240   -0.4760 c         1 MOL      0.490446
     72 O13        -8.8840    0.4830   -1.2370 o         1 MOL     -0.591750
     73 H30        -6.1060   -2.4470    0.3180 hn        1 MOL      0.331697
     74 H31        -8.8030   -2.0340   -0.5870 h1        1 MOL      0.081627
     75 H32        -7.2710   -1.7740   -1.3920 h1        1 MOL      0.081627
     76 N7         -7.3690    0.7920    0.3570 n         1 MOL     -0.232246
     77 C25        -7.3720    2.2260    0.5480 c3        1 MOL      0.035004
     78 C26        -7.1570    3.1630   -0.6560 c         1 MOL      0.587242
     79 O14        -7.6790    4.2050   -0.7910 o         1 MOL     -0.521004
     80 C27        -8.5080    2.7140    1.4720 c3        1 MOL      0.069379
     81 C28        -8.4210    2.4270    2.9110 c3        1 MOL     -0.151499
     82 C29        -8.6510    3.5460    3.8820 c         1 MOL      0.619056
     83 N8         -8.6220    3.3430    5.2250 n         1 MOL     -0.856070
     84 O15        -8.7360    4.7290    3.5890 o         1 MOL     -0.536546
     85 H33        -6.6890    0.3390    0.9510 hn        1 MOL      0.205860
     86 H34        -6.3810    2.3040    0.9990 h1        1 MOL      0.049846
     87 H35        -9.4280    2.2310    1.1240 hc        1 MOL     -0.012476
     88 H36        -8.6800    3.7950    1.4300 hc        1 MOL     -0.012476
     89 H37        -7.4020    2.0730    3.0710 hc        1 MOL      0.058516
     90 H38        -9.0120    1.5920    3.2810 hc        1 MOL      0.058516
     91 H39        -8.3230    2.4240    5.5030 hn        1 MOL      0.366560
     92 H40        -8.7080    4.1900    5.7710 hn        1 MOL      0.366560
     93 N9         -6.3520    2.6460   -1.6100 n         1 MOL     -0.457384
     94 C30        -5.9110    3.3010   -2.8870 c3        1 MOL     -0.045457
     95 C31        -4.3950    3.2170   -3.1150 c         1 MOL      0.553703
     96 O16        -3.7760    3.9570   -3.8780 o         1 MOL     -0.601118
     97 C32        -6.6320    2.5710   -4.0680 c3        1 MOL      0.223076
     98 C33        -6.4350    1.0780   -3.9930 c3        1 MOL     -0.282067
     99 C34        -8.1790    2.8920   -4.0950 c3        1 MOL     -0.282067
    100 H41        -6.1840    1.6440   -1.5670 hn        1 MOL      0.270040
    101 H42        -6.1920    4.3570   -2.9020 h1        1 MOL      0.109275
    102 H43        -6.2310    2.9900   -4.9930 hc        1 MOL     -0.030389
    103 H44        -6.8560    0.7350   -3.0470 hc        1 MOL      0.065715
    104 H45        -6.9390    0.5970   -4.8330 hc        1 MOL      0.065715
    105 H46        -5.4020    0.8050   -4.2160 hc        1 MOL      0.065715
    106 H47        -8.6790    2.5520   -5.0130 hc        1 MOL      0.065715
    107 H48        -8.6510    2.6840   -3.1290 hc        1 MOL      0.065715
    108 H49        -8.1460    3.9740   -4.1880 hc        1 MOL      0.065715
    109 N10        -3.7350    2.3990   -2.3230 n         1 MOL     -0.499275
    110 C35        -2.2240    2.0910   -2.2490 c3        1 MOL      0.520066
    111 C36        -1.6930    2.5810   -0.9890 c         1 MOL      0.536802
    112 O17        -2.4050    3.0080   -0.0980 o         1 MOL     -0.545976
    113 C37        -2.0510    0.6170   -2.5780 c3        1 MOL     -0.416198
    114 C38        -0.5690    0.2130   -2.4940 c         1 MOL      0.612411
    115 N11         0.0040   -0.5850   -1.6840 n         1 MOL     -0.544535
    116 O18         0.1490    0.7710   -3.3380 o         1 MOL     -0.628313
    117 H50        -4.3280    1.8200   -1.7380 hn        1 MOL      0.199547
    118 H51        -1.7410    2.6520   -3.0490 h1        1 MOL     -0.004417
    119 H52        -2.4370    0.4110   -3.5770 hc        1 MOL      0.136270
    120 H53        -2.5030    0.0570   -1.7590 hc        1 MOL      0.136270
    121 H54        -0.4800   -1.0360   -0.9220 hn        1 MOL      0.301181
    122 H55         1.0180   -0.6620   -1.7230 hn        1 MOL      0.301181
    123 N12        -0.3970    2.5590   -0.8700 n         1 MOL     -0.756202
    124 C39         0.3930    3.2220    0.1840 c3        1 MOL      0.493676
    125 C40         1.7220    3.4150   -0.4020 c         1 MOL      0.538940
    126 O19         2.1040    2.8510   -1.4360 o         1 MOL     -0.526180
    127 C41         0.5390    2.2540    1.4190 c3        1 MOL     -0.471988
    128 C42         0.8240    2.7730    2.7610 ca        1 MOL      0.094911
    129 C43         2.1630    2.8650    3.1120 ca        1 MOL     -0.103600
    130 C44        -0.1750    3.1760    3.6460 ca        1 MOL     -0.103600
    131 C45         2.5680    3.3090    4.3560 ca        1 MOL     -0.309622
    132 C46         0.2190    3.7800    4.8610 ca        1 MOL     -0.309622
    133 C47         1.6020    3.8240    5.1980 ca        1 MOL      0.330278
    134 O20         2.0360    4.6560    6.1750 oh        1 MOL     -0.535160
    135 H56         0.0580    2.1900   -1.7000 hn        1 MOL      0.309139
    136 H57        -0.0280    4.1700    0.4940 h1        1 MOL      0.018211
    137 H58         1.2110    1.4630    1.0780 hc        1 MOL      0.166139
    138 H59        -0.4300    1.7550    1.5380 hc        1 MOL      0.166139
    139 H60         2.9070    2.5750    2.3960 ha        1 MOL      0.144617
    140 H61        -1.1970    3.2040    3.2900 ha        1 MOL      0.144617
    141 H62         3.6140    3.4710    4.5680 ha        1 MOL      0.163314
    142 H63        -0.5140    4.2560    5.4840 ha        1 MOL      0.163314
    143 H64         2.9810    4.7470    6.2450 ho        1 MOL      0.378950
    144 N13         2.5470    4.1600    0.3290 n         1 MOL     -0.792148
    145 C48         3.7960    4.7700   -0.1190 c3        1 MOL      0.835827
    146 C49         4.9750    4.3610    0.8410 c         1 MOL      0.231838
    147 O21         4.9330    4.5330    2.0710 o         1 MOL     -0.545405
    148 C50         3.7550    6.2910   -0.3390 c3        1 MOL     -0.139287
    149 C51         2.6110    6.8560   -1.2130 c3        1 MOL     -0.157970
    150 C52         2.7440    8.3550   -1.1350 c         1 MOL      0.695123
    151 O22         1.9620    9.0150   -0.4220 o         1 MOL     -0.681358
    152 O23         3.6270    8.9270   -1.8420 o         1 MOL     -0.681358
    153 H65         2.2730    4.4560    1.2510 hn        1 MOL      0.313660
    154 H66         4.0060    4.3280   -1.0950 h1        1 MOL     -0.113013
    155 H67         4.6790    6.5860   -0.8190 hc        1 MOL      0.030671
    156 H68         3.7040    6.6710    0.6870 hc        1 MOL      0.030671
    157 H69         1.6420    6.5250   -0.8360 hc        1 MOL      0.018833
    158 H70         2.7230    6.4730   -2.2380 hc        1 MOL      0.018833
    159 N14         6.0830    3.6960    0.3490 n         1 MOL     -0.149075
    160 C53         6.4440    3.2300   -1.0080 c3        1 MOL     -0.888101
    161 C54         6.8680    4.4400   -1.9530 c         1 MOL      0.567771
    162 O24         7.4370    5.3750   -1.5680 o         1 MOL     -0.493411
    163 C55         7.6480    2.3350   -0.9160 c3        1 MOL      0.595171
    164 C56         7.4040    0.9260   -0.4520 c3        1 MOL      0.140791
    165 C57         8.6300    0.1480   -0.1740 c         1 MOL      0.534122
    166 O25         9.6390    0.3730   -0.8370 o         1 MOL     -0.716910
    167 O26         8.5660   -0.7830    0.6580 o         1 MOL     -0.716910
    168 H71         6.8070    3.4150    0.9800 hn        1 MOL      0.260663
    169 H72         5.6480    2.6570   -1.4950 h1        1 MOL      0.263397
    170 H73         8.4060    2.7350   -0.2360 hc        1 MOL     -0.095314
    171 H74         8.1820    2.2770   -1.8620 hc        1 MOL     -0.095314
    172 H75         6.7330    0.4300   -1.1590 hc        1 MOL     -0.034443
    173 H76         6.9600    0.9820    0.5390 hc        1 MOL     -0.034443
    174 N15         6.4530    4.3390   -3.2230 n         1 MOL     -0.226418
    175 C58         6.5620    5.2930   -4.3410 c3        1 MOL     -0.211218
    176 H77         6.9180    6.2530   -3.9660 h1        1 MOL      0.094781
    177 H78         7.2650    4.9090   -5.0800 h1        1 MOL      0.094781
    178 H79         5.5840    5.4240   -4.8030 h1        1 MOL      0.094781
    179 H80         5.9150    3.5380   -3.5040 hn        1 MOL      0.232223
    180 Ca1         8.2180   -3.0470    1.7390 Ca        1 MOL      1.697854
    181 O27        10.4440   -3.2350    3.2070 oh        1 MOL     -0.855175
    182 H81        10.7090   -2.6200    3.8860 ho        1 MOL      0.407489
    183 H82        11.2140   -3.7880    3.0690 ho        1 MOL      0.407489
    184 O28        10.4750   -2.7010    0.0910 oh        1 MOL     -0.855175
    185 H83        11.1500   -3.0400   -0.4970 ho        1 MOL      0.407489
    186 H84        10.3250   -1.8050   -0.2030 ho        1 MOL      0.407489
    187 O29         8.8210   -5.7510    1.3890 oh        1 MOL     -0.855175
    188 H85         8.4390   -6.5620    1.0680 ho        1 MOL      0.407489
    189 H86         9.7260   -5.9760    1.6110 ho        1 MOL      0.407489
    190 O30         7.7300   -1.2220    3.7300 oh        1 MOL     -0.855175
    191 H87         8.0710   -0.3400    3.9170 ho        1 MOL      0.407489
    192 H88         6.9750   -1.3100    4.3080 ho        1 MOL      0.407489
    193 O31         7.4480   -4.4450    3.8460 oh        1 MOL     -0.855175
    194 H89         6.8430   -4.1170    4.5090 ho        1 MOL      0.407489
    195 H90         7.4640   -5.3890    3.9750 ho        1 MOL      0.407489
@<TRIPOS>BOND
     1    1    2 1   
     2    1    4 1   
     3    1    5 1   
     4    1    6 1   
     5    2    3 2   
     6    2    7 1   
     7    7    8 1   
     8    7   15 1   
     9    8    9 1   
    10    8   11 1   
    11    8   16 1   
    12    9   10 2   
    13    9   19 1   
    14   11   12 1   
    15   11   17 1   
    16   11   18 1   
    17   12   13 1   
    18   12   14 1   
    19   19   20 1   
    20   19   27 1   
    21   20   21 1   
    22   20   23 1   
    23   20   28 1   
    24   21   22 2   
    25   21   38 1   
    26   23   24 1   
    27   23   25 1   
    28   23   29 1   
    29   24   26 1   
    30   24   30 1   
    31   24   31 1   
    32   25   32 1   
    33   25   33 1   
    34   25   34 1   
    35   26   35 1   
    36   26   36 1   
    37   26   37 1   
    38   38   39 1   
    39   38   46 1   
    40   39   40 1   
    41   39   42 1   
    42   39   47 1   
    43   40   41 2   
    44   40   50 1   
    45   42   43 1   
    46   42   48 1   
    47   42   49 1   
    48   43   44 1   
    49   43   45 1   
    50   50   51 1   
    51   50   54 1   
    52   51   52 1   
    53   51   55 1   
    54   51   56 1   
    55   52   53 2   
    56   52   57 1   
    57   57   58 1   
    58   57   65 1   
    59   58   59 1   
    60   58   61 1   
    61   58   66 1   
    62   59   60 2   
    63   59   69 1   
    64   61   62 1   
    65   61   67 1   
    66   61   68 1   
    67   62   63 1   
    68   62   64 1   
    69   69   70 1   
    70   69   73 1   
    71   70   71 1   
    72   70   74 1   
    73   70   75 1   
    74   71   72 2   
    75   71   76 1   
    76   76   77 1   
    77   76   85 1   
    78   77   78 1   
    79   77   80 1   
    80   77   86 1   
    81   78   79 2   
    82   78   93 1   
    83   80   81 1   
    84   80   87 1   
    85   80   88 1   
    86   81   82 1   
    87   81   89 1   
    88   81   90 1   
    89   82   83 1   
    90   82   84 2   
    91   83   91 1   
    92   83   92 1   
    93   93   94 1   
    94   93  100 1   
    95   94   95 1   
    96   94   97 1   
    97   94  101 1   
    98   95   96 2   
    99   95  109 1   
   100   97   98 1   
   101   97   99 1   
   102   97  102 1   
   103   98  103 1   
   104   98  104 1   
   105   98  105 1   
   106   99  106 1   
   107   99  107 1   
   108   99  108 1   
   109  109  110 1   
   110  109  117 1   
   111  110  111 1   
   112  110  113 1   
   113  110  118 1   
   114  111  112 2   
   115  111  123 1   
   116  113  114 1   
   117  113  119 1   
   118  113  120 1   
   119  114  115 1   
   120  114  116 2   
   121  115  121 1   
   122  115  122 1   
   123  123  124 1   
   124  123  135 1   
   125  124  125 1   
   126  124  127 1   
   127  124  136 1   
   128  125  126 2   
   129  125  144 1   
   130  127  128 1   
   131  127  137 1   
   132  127  138 1   
   133  128  129 ar  
   134  128  130 ar  
   135  129  131 ar  
   136  129  139 1   
   137  130  132 ar  
   138  130  140 1   
   139  131  133 ar  
   140  131  141 1   
   141  132  133 ar  
   142  132  142 1   
   143  133  134 1   
   144  134  143 1   
   145  144  145 1   
   146  144  153 1   
   147  145  146 1   
   148  145  148 1   
   149  145  154 1   
   150  146  147 2   
   151  146  159 1   
   152  148  149 1   
   153  148  155 1   
   154  148  156 1   
   155  149  150 1   
   156  149  157 1   
   157  149  158 1   
   158  150  151 1   
   159  150  152 1   
   160  159  160 1   
   161  159  168 1   
   162  160  161 1   
   163  160  163 1   
   164  160  169 1   
   165  161  162 2   
   166  161  174 1   
   167  163  164 1   
   168  163  170 1   
   169  163  171 1   
   170  164  165 1   
   171  164  172 1   
   172  164  173 1   
   173  165  166 1   
   174  165  167 1   
   175  174  175 1   
   176  174  179 1   
   177  175  176 1   
   178  175  177 1   
   179  175  178 1   
   180  181  182 1   
   181  181  183 1   
   182  184  185 1   
   183  184  186 1   
   184  187  188 1   
   185  187  189 1   
   186  190  191 1   
   187  190  192 1   
   188  193  194 1   
   189  193  195 1   
@<TRIPOS>SUBSTRUCTURE
     1 MOL         1 TEMP              0 ****  ****    0 ROOT
