@<TRIPOS>MOLECULE
MOL
  178   175     1     0     0
SMALL
resp


@<TRIPOS>ATOM
      1 C1         -8.3800   -5.9150   -3.1880 c3        1 MOL     -0.317014
      2 C2         -7.1680   -5.0100   -2.9030 c         1 MOL      0.594677
      3 O1         -6.0780   -5.4720   -2.7050 o         1 MOL     -0.545534
      4 H1         -8.9730   -5.4840   -3.9940 hc        1 MOL      0.084298
      5 H2         -8.0330   -6.9060   -3.4820 hc        1 MOL      0.084298
      6 H3         -8.9920   -5.9960   -2.2910 hc        1 MOL      0.084298
      7 N1         -7.3170   -3.6530   -2.9500 n         1 MOL     -0.474143
      8 C3         -8.5110   -2.7970   -3.3440 c3        1 MOL      0.039242
      9 C4         -9.4740   -2.5080   -2.1450 c         1 MOL      0.465656
     10 O2        -10.7290   -2.4230   -2.3680 o         1 MOL     -0.579483
     11 C5         -7.9190   -1.4900   -3.8990 c3        1 MOL     -0.345795
     12 C6         -6.7320   -0.9210   -3.1190 c         1 MOL      0.818061
     13 O3         -6.0910   -0.0770   -3.7420 o         1 MOL     -0.758848
     14 O4         -6.3720   -1.2710   -1.9690 o         1 MOL     -0.758848
     15 H4         -6.5150   -3.1640   -2.5760 hn        1 MOL      0.314719
     16 H5         -9.0780   -3.1990   -4.1830 h1        1 MOL      0.101816
     17 H6         -8.6070   -0.7090   -4.2190 hc        1 MOL      0.104271
     18 H7         -7.4220   -1.8400   -4.8110 hc        1 MOL      0.104271
     19 N2         -9.0280   -2.5440   -0.9030 n         1 MOL     -0.409553
     20 C7         -9.8610   -2.2100    0.2280 c3        1 MOL      0.144611
     21 C8         -9.2950   -1.1320    1.1430 c         1 MOL      0.443503
     22 O5        -10.0380   -0.7460    2.0740 o         1 MOL     -0.579443
     23 C9        -10.2010   -3.5790    0.9510 c3        1 MOL     -0.137036
     24 H8         -8.0270   -2.7230   -0.9440 hn        1 MOL      0.285874
     25 H9        -10.8550   -1.9450   -0.1240 h1        1 MOL      0.082472
     26 H10       -10.9000   -3.4560    1.7840 hc        1 MOL      0.041943
     27 H11       -10.6450   -4.2900    0.2610 hc        1 MOL      0.041943
     28 H12        -9.3720   -4.1130    1.4010 hc        1 MOL      0.041943
     29 N3         -8.1250   -0.5880    0.8990 n         1 MOL     -0.230311
     30 C10        -7.5630    0.5730    1.6210 c3        1 MOL      0.075811
     31 C11        -7.1940    1.6860    0.6130 c         1 MOL      0.264109
     32 O6         -6.9470    1.4020   -0.5530 o         1 MOL     -0.419256
     33 C12        -6.4070    0.2060    2.5310 c3        1 MOL     -0.139728
     34 C13        -5.3240   -0.6630    1.8150 c         1 MOL      0.781922
     35 O7         -4.5110   -1.2910    2.4640 o         1 MOL     -0.665148
     36 O8         -5.2740   -0.6670    0.5440 o         1 MOL     -0.665148
     37 H13        -7.4730   -0.9350    0.2100 hn        1 MOL      0.155805
     38 H14        -8.3550    1.0530    2.1810 h1        1 MOL      0.034669
     39 H15        -6.8180   -0.2990    3.4100 hc        1 MOL      0.043237
     40 H16        -5.9850    1.1600    2.8190 hc        1 MOL      0.043237
     41 N4         -7.1980    2.9540    1.0960 n         1 MOL     -0.144104
     42 C14        -6.5970    4.1120    0.4260 c3        1 MOL     -0.470789
     43 C15        -5.0630    3.8780    0.2420 c         1 MOL      0.786711
     44 O9         -4.5240    2.7340    0.1360 o         1 MOL     -0.607964
     45 H17        -7.5920    3.0710    2.0220 hn        1 MOL      0.245630
     46 H18        -6.6280    4.9210    1.1450 h1        1 MOL      0.179104
     47 H19        -7.0740    4.3460   -0.5240 h1        1 MOL      0.179104
     48 N5         -4.3060    4.9660    0.0710 n         1 MOL     -0.623858
     49 C16        -2.8580    4.9010   -0.1960 c3        1 MOL      0.114390
     50 C17        -2.0730    3.9630    0.6990 c         1 MOL      0.628035
     51 O10        -2.2890    4.0060    1.9510 o         1 MOL     -0.539176
     52 C18        -2.2440    6.3030    0.0090 c3        1 MOL     -0.369797
     53 C19        -2.5750    7.3160   -1.0950 c         1 MOL      0.733753
     54 N6         -1.8200    8.3380   -1.1190 n         1 MOL     -0.769997
     55 O11        -3.4920    7.1830   -1.9290 o         1 MOL     -0.605231
     56 H20        -4.8320    5.8150   -0.0330 hn        1 MOL      0.336637
     57 H21        -2.6950    4.6230   -1.2420 h1        1 MOL      0.074604
     58 H22        -1.1570    6.2550    0.0640 hc        1 MOL      0.120213
     59 H23        -2.6090    6.7140    0.9570 hc        1 MOL      0.120213
     60 H24        -1.1410    8.4390   -0.3820 hn        1 MOL      0.364334
     61 H25        -1.9880    9.0720   -1.7990 hn        1 MOL      0.364334
     62 N7         -1.2020    3.1020    0.1760 n         1 MOL     -0.546109
     63 C20        -0.7200    1.8840    0.9230 c3        1 MOL      0.016389
     64 C21        -1.8170    0.8070    1.0940 c         1 MOL      0.396910
     65 O12        -2.5100    0.4730    0.1180 o         1 MOL     -0.583916
     66 H26        -0.9270    3.2850   -0.7780 hn        1 MOL      0.301915
     67 H27        -0.4520    2.2290    1.9240 h1        1 MOL      0.132735
     68 H28         0.1570    1.4670    0.4250 h1        1 MOL      0.132735
     69 N8         -2.1910    0.3200    2.2920 n         1 MOL     -0.179342
     70 C22        -1.4820    0.3250    3.6160 c3        1 MOL     -0.221144
     71 C23        -0.0950   -0.3250    3.5160 c         1 MOL      0.502930
     72 O13         0.7670    0.0720    4.2950 o         1 MOL     -0.535939
     73 C24        -2.3250   -0.4360    4.6290 c3        1 MOL      0.692638
     74 C25        -1.9620    0.1540    6.0440 c3        1 MOL     -0.466793
     75 O14        -3.6150   -0.1080    4.5410 oh        1 MOL     -0.696179
     76 H29        -2.9930   -0.2880    2.1890 hn        1 MOL      0.167197
     77 H30        -1.4380    1.3540    3.9680 h1        1 MOL      0.130010
     78 H31        -2.1060   -1.4910    4.7320 h1        1 MOL     -0.050622
     79 H32        -4.0270   -0.4030    3.7190 ho        1 MOL      0.341630
     80 H33        -0.9660   -0.1670    6.3400 hc        1 MOL      0.099845
     81 H34        -1.9550    1.2370    6.0030 hc        1 MOL      0.099845
     82 H35        -2.6830   -0.4120    6.6340 hc        1 MOL      0.099845
     83 N9          0.1430   -1.2290    2.5820 n         1 MOL     -0.629681
     84 C26         1.4660   -1.7340    2.1940 c3        1 MOL      0.179904
     85 C27         1.6980   -1.3800    0.7010 c         1 MOL      0.518911
     86 O15         0.7600   -1.7330   -0.0990 o         1 MOL     -0.574205
     87 C28         1.6190   -3.2270    2.5700 c3        1 MOL     -0.054123
     88 C29         0.9440   -3.7680    3.9070 c3        1 MOL      0.073175
     89 C30         3.1210   -3.4810    2.4630 c3        1 MOL      0.002145
     90 C31         1.6540   -3.2210    5.2320 c3        1 MOL     -0.266853
     91 H36        -0.6440   -1.6150    2.0820 hn        1 MOL      0.334047
     92 H37         2.2050   -1.1250    2.7120 h1        1 MOL      0.092766
     93 H38         1.1640   -3.7380    1.7200 hc        1 MOL      0.009864
     94 H39         0.9600   -4.8600    3.8820 hc        1 MOL      0.000529
     95 H40        -0.1390   -3.7180    3.9910 hc        1 MOL      0.000529
     96 H41         3.6560   -3.0150    3.2930 hc        1 MOL      0.028780
     97 H42         3.2360   -4.5670    2.5350 hc        1 MOL      0.028780
     98 H43         3.4660   -3.1860    1.4740 hc        1 MOL      0.028780
     99 H44         1.4710   -2.1670    5.3650 hc        1 MOL      0.063783
    100 H45         1.2720   -3.8110    6.0680 hc        1 MOL      0.063783
    101 H46         2.7340   -3.3540    5.2110 hc        1 MOL      0.063783
    102 N10         2.7320   -0.7170    0.3310 n         1 MOL     -0.553283
    103 C32         3.7240    0.0120    1.0660 c3        1 MOL      0.199508
    104 C33         5.0640    0.1770    0.2620 c         1 MOL      0.567379
    105 O16         5.1620   -0.2520   -0.9020 o         1 MOL     -0.504506
    106 C34         3.1300    1.3610    1.5940 c3        1 MOL     -0.189625
    107 C35         2.6070    2.2670    0.4410 c         1 MOL      0.646699
    108 O17         2.7510    1.9400   -0.7750 o         1 MOL     -0.685183
    109 O18         2.1100    3.3750    0.7800 o         1 MOL     -0.685183
    110 H47         2.6220   -0.4170   -0.6310 hn        1 MOL      0.313875
    111 H48         4.0010   -0.6760    1.8730 h1        1 MOL     -0.001347
    112 H49         3.8840    1.9140    2.1460 hc        1 MOL      0.024197
    113 H50         2.2850    1.1620    2.2620 hc        1 MOL      0.024197
    114 N11         6.0960    0.7990    0.8660 n         1 MOL     -0.532052
    115 C36         7.3470    1.2720    0.2120 c3        1 MOL      0.501865
    116 C37         8.6660    0.6240    0.7790 c         1 MOL      0.222356
    117 O19         8.8700    0.7050    1.9980 o         1 MOL     -0.497817
    118 C38         7.3890    2.8080    0.3760 c3        1 MOL     -0.351480
    119 C39         8.4010    3.5710   -0.5370 ca        1 MOL      0.171249
    120 C40         9.7950    3.4880   -0.3200 ca        1 MOL     -0.201503
    121 C41         7.9670    4.3780   -1.6580 ca        1 MOL     -0.201503
    122 C42        10.7760    4.1370   -1.1430 ca        1 MOL     -0.101253
    123 C43         8.8960    4.9580   -2.5740 ca        1 MOL     -0.101253
    124 C44        10.2930    4.8910   -2.2520 ca        1 MOL     -0.171071
    125 H51         5.9740    0.9990    1.8510 hn        1 MOL      0.283302
    126 H52         7.1470    1.0300   -0.8340 h1        1 MOL     -0.005558
    127 H53         7.7050    2.9860    1.4060 hc        1 MOL      0.104777
    128 H54         6.4730    3.3770    0.2110 hc        1 MOL      0.104777
    129 H55        10.2360    2.9700    0.5180 ha        1 MOL      0.138394
    130 H56         6.9060    4.4530   -1.8250 ha        1 MOL      0.138394
    131 H57        11.8400    4.0580   -0.9320 ha        1 MOL      0.109297
    132 H58         8.6530    5.5720   -3.4220 ha        1 MOL      0.109297
    133 H59        11.0020    5.2960   -2.9520 ha        1 MOL      0.104586
    134 N12         9.5210    0.0310   -0.0630 n         1 MOL     -0.046740
    135 C45         9.3120   -0.0320   -1.5410 c3        1 MOL      0.054553
    136 C46         8.2610   -1.1420   -1.8810 c         1 MOL      0.443096
    137 O20         7.6480   -0.9540   -2.8920 o         1 MOL     -0.528917
    138 C47        10.6920   -0.3890   -2.0890 c3        1 MOL     -0.094761
    139 C48        11.4090   -1.0910   -0.9940 c3        1 MOL      0.034737
    140 C49        10.7670   -0.5630    0.2810 c3        1 MOL     -0.223954
    141 H60         8.9860    0.9160   -1.9530 h1        1 MOL      0.053004
    142 H61        10.6530   -0.9490   -3.0260 hc        1 MOL      0.030068
    143 H62        11.2360    0.5350   -2.3100 hc        1 MOL      0.030068
    144 H63        11.1050   -2.1340   -1.1010 hc        1 MOL      0.018518
    145 H64        12.4950   -1.1160   -0.9320 hc        1 MOL      0.018518
    146 H65        10.7140   -1.4560    0.9080 h1        1 MOL      0.102212
    147 H66        11.4790    0.0990    0.7610 h1        1 MOL      0.102212
    148 N13         8.1170   -2.1570   -1.0340 n         1 MOL     -0.324625
    149 C50         7.3190   -3.2930   -1.4230 c3        1 MOL      0.057845
    150 C51         7.9300   -4.0860   -2.5870 c         1 MOL      0.458594
    151 O21         8.8260   -4.9200   -2.4240 o         1 MOL     -0.584956
    152 C52         7.0780   -4.1670   -0.2340 c3        1 MOL      0.133488
    153 C53         6.3630   -3.4980    0.9110 c3        1 MOL     -0.163256
    154 C54         6.3500   -4.4330    2.0900 c         1 MOL      0.675085
    155 O22         5.8900   -5.6030    1.9370 o         1 MOL     -0.727306
    156 O23         6.9570   -4.0900    3.1640 o         1 MOL     -0.727306
    157 H67         8.7270   -2.1470   -0.2330 hn        1 MOL      0.294131
    158 H68         6.3680   -2.8910   -1.7690 h1        1 MOL      0.106880
    159 H69         8.0270   -4.5350    0.1380 hc        1 MOL     -0.010075
    160 H70         6.4730   -5.0140   -0.5560 hc        1 MOL     -0.010075
    161 H71         5.3550   -3.5090    0.4970 hc        1 MOL     -0.025223
    162 H72         6.6100   -2.4660    1.1710 hc        1 MOL     -0.025223
    163 N14         7.5180   -3.9860   -3.8790 n         1 MOL     -0.340185
    164 C55         6.4140   -3.2730   -4.5110 c3        1 MOL     -0.117625
    165 H73         5.6670   -3.0210   -3.7580 h1        1 MOL      0.068477
    166 H74         6.7880   -2.3590   -4.9720 h1        1 MOL      0.068477
    167 H75         5.9610   -3.9060   -5.2740 h1        1 MOL      0.068477
    168 H76         7.8720   -4.7100   -4.4790 hn        1 MOL      0.262143
    169 Ca1        -4.6540    0.6170   -1.5530 Ca        1 MOL      1.773385
    170 O24        -5.7160    2.7930   -2.9800 oh        1 MOL     -0.899829
    171 H77        -5.0010    3.1400   -3.5100 ho        1 MOL      0.441232
    172 H78        -6.5130    3.0900   -3.4290 ho        1 MOL      0.441232
    173 O25        -2.6750    1.6870   -2.7990 oh        1 MOL     -0.899829
    174 H79        -2.1620    0.8890   -2.8560 ho        1 MOL      0.441232
    175 H80        -2.0400    2.3890   -2.8730 ho        1 MOL      0.441232
    176 O26        -3.2510   -1.2470   -2.8220 oh        1 MOL     -0.899829
    177 H81        -3.4400   -1.4450   -3.7430 ho        1 MOL      0.441232
    178 H82        -2.5160   -1.8300   -2.6000 ho        1 MOL      0.441232
@<TRIPOS>BOND
     1    1    2 1   
     2    1    4 1   
     3    1    5 1   
     4    1    6 1   
     5    2    3 2   
     6    2    7 1   
     7    7    8 1   
     8    7   15 1   
     9    8    9 1   
    10    8   11 1   
    11    8   16 1   
    12    9   10 2   
    13    9   19 1   
    14   11   12 1   
    15   11   17 1   
    16   11   18 1   
    17   12   13 1   
    18   12   14 1   
    19   19   20 1   
    20   19   24 1   
    21   20   21 1   
    22   20   23 1   
    23   20   25 1   
    24   21   22 2   
    25   21   29 1   
    26   23   26 1   
    27   23   27 1   
    28   23   28 1   
    29   29   30 1   
    30   29   37 1   
    31   30   31 1   
    32   30   33 1   
    33   30   38 1   
    34   31   32 2   
    35   31   41 1   
    36   33   34 1   
    37   33   39 1   
    38   33   40 1   
    39   34   35 1   
    40   34   36 1   
    41   41   42 1   
    42   41   45 1   
    43   42   43 1   
    44   42   46 1   
    45   42   47 1   
    46   43   44 2   
    47   43   48 1   
    48   48   49 1   
    49   48   56 1   
    50   49   50 1   
    51   49   52 1   
    52   49   57 1   
    53   50   51 2   
    54   50   62 1   
    55   52   53 1   
    56   52   58 1   
    57   52   59 1   
    58   53   54 1   
    59   53   55 2   
    60   54   60 1   
    61   54   61 1   
    62   62   63 1   
    63   62   66 1   
    64   63   64 1   
    65   63   67 1   
    66   63   68 1   
    67   64   65 2   
    68   64   69 1   
    69   69   70 1   
    70   69   76 1   
    71   70   71 1   
    72   70   73 1   
    73   70   77 1   
    74   71   72 2   
    75   71   83 1   
    76   73   74 1   
    77   73   75 1   
    78   73   78 1   
    79   74   80 1   
    80   74   81 1   
    81   74   82 1   
    82   75   79 1   
    83   83   84 1   
    84   83   91 1   
    85   84   85 1   
    86   84   87 1   
    87   84   92 1   
    88   85   86 2   
    89   85  102 1   
    90   87   88 1   
    91   87   89 1   
    92   87   93 1   
    93   88   90 1   
    94   88   94 1   
    95   88   95 1   
    96   89   96 1   
    97   89   97 1   
    98   89   98 1   
    99   90   99 1   
   100   90  100 1   
   101   90  101 1   
   102  102  103 1   
   103  102  110 1   
   104  103  104 1   
   105  103  106 1   
   106  103  111 1   
   107  104  105 2   
   108  104  114 1   
   109  106  107 1   
   110  106  112 1   
   111  106  113 1   
   112  107  108 1   
   113  107  109 1   
   114  114  115 1   
   115  114  125 1   
   116  115  116 1   
   117  115  118 1   
   118  115  126 1   
   119  116  117 2   
   120  116  134 1   
   121  118  119 1   
   122  118  127 1   
   123  118  128 1   
   124  119  120 ar  
   125  119  121 ar  
   126  120  122 ar  
   127  120  129 1   
   128  121  123 ar  
   129  121  130 1   
   130  122  124 ar  
   131  122  131 1   
   132  123  124 ar  
   133  123  132 1   
   134  124  133 1   
   135  134  135 1   
   136  134  140 1   
   137  135  136 1   
   138  135  138 1   
   139  135  141 1   
   140  136  137 2   
   141  136  148 1   
   142  138  139 1   
   143  138  142 1   
   144  138  143 1   
   145  139  140 1   
   146  139  144 1   
   147  139  145 1   
   148  140  146 1   
   149  140  147 1   
   150  148  149 1   
   151  148  157 1   
   152  149  150 1   
   153  149  152 1   
   154  149  158 1   
   155  150  151 2   
   156  150  163 1   
   157  152  153 1   
   158  152  159 1   
   159  152  160 1   
   160  153  154 1   
   161  153  161 1   
   162  153  162 1   
   163  154  155 1   
   164  154  156 1   
   165  163  164 1   
   166  163  168 1   
   167  164  165 1   
   168  164  166 1   
   169  164  167 1   
   170  170  171 1   
   171  170  172 1   
   172  173  174 1   
   173  173  175 1   
   174  176  177 1   
   175  176  178 1   
@<TRIPOS>SUBSTRUCTURE
     1 MOL         1 TEMP              0 ****  ****    0 ROOT
