@<TRIPOS>MOLECULE
MOL
  192   187     1     0     0
SMALL
resp


@<TRIPOS>ATOM
      1 C1         -3.5700    2.4660   -2.8700 c3        1 MOL     -0.355297
      2 C2         -2.6650    3.0780   -1.7630 c         1 MOL      0.665134
      3 O1         -1.7220    2.4010   -1.3430 o         1 MOL     -0.561110
      4 H1         -3.0480    2.5030   -3.8260 hc        1 MOL      0.082292
      5 H2         -3.7980    1.4300   -2.6220 hc        1 MOL      0.082292
      6 H3         -4.4960    3.0360   -2.9400 hc        1 MOL      0.082292
      7 N1         -2.8170    4.3560   -1.3950 n         1 MOL     -0.259599
      8 C3         -1.9200    5.0420   -0.5190 c3        1 MOL     -0.300166
      9 C4         -0.3960    4.9040   -0.7270 c         1 MOL      0.861390
     10 O2          0.3540    4.5510    0.2160 o         1 MOL     -0.607845
     11 C5         -2.3420    4.8910    0.9680 c3        1 MOL     -0.114448
     12 C6         -3.8340    4.9540    1.3150 c         1 MOL      0.838757
     13 O3         -4.3260    4.1830    2.1370 o         1 MOL     -0.798367
     14 O4         -4.5140    5.7750    0.6710 o         1 MOL     -0.798367
     15 H4         -3.7120    4.7320   -1.6690 hn        1 MOL      0.205062
     16 H5         -2.2290    6.0670   -0.7570 h1        1 MOL      0.096059
     17 H6         -1.9240    5.6780    1.6000 hc        1 MOL      0.063519
     18 H7         -1.8700    3.9790    1.3460 hc        1 MOL      0.063519
     19 N2          0.0560    5.2290   -1.8850 n         1 MOL     -0.547399
     20 C7          1.4810    5.1160   -2.1150 c3        1 MOL     -0.069292
     21 C8          2.2910    6.4100   -1.8640 c         1 MOL      0.595590
     22 O5          1.6530    7.4340   -1.8930 o         1 MOL     -0.597284
     23 C9          1.7350    4.4390   -3.5740 c3        1 MOL     -0.002950
     24 C10         1.2020    5.2810   -4.7690 c3        1 MOL      0.283995
     25 C11         0.9910    3.0540   -3.5890 c3        1 MOL     -0.359707
     26 C12         1.5360    4.7500   -6.1800 c3        1 MOL     -0.274733
     27 H8         -0.5780    5.4990   -2.6230 hn        1 MOL      0.262509
     28 H9          1.9340    4.4060   -1.4230 h1        1 MOL      0.195488
     29 H10         2.7960    4.2250   -3.6480 hc        1 MOL      0.064504
     30 H11         1.6060    6.2830   -4.7120 hc        1 MOL     -0.056365
     31 H12         0.1140    5.3630   -4.7430 hc        1 MOL     -0.056365
     32 H13        -0.0480    3.1050   -3.2360 hc        1 MOL      0.096556
     33 H14         0.9830    2.6600   -4.6080 hc        1 MOL      0.096556
     34 H15         1.4920    2.4600   -2.8210 hc        1 MOL      0.096556
     35 H16         1.3240    5.5570   -6.8900 hc        1 MOL      0.051184
     36 H17         2.6060    4.6020   -6.2250 hc        1 MOL      0.051184
     37 H18         0.9140    3.8780   -6.3990 hc        1 MOL      0.051184
     38 N3          3.5900    6.4110   -1.5740 n         1 MOL     -0.454928
     39 C13         4.4090    5.3940   -1.0970 c3        1 MOL     -0.065683
     40 C14         5.0830    5.7770    0.2410 c         1 MOL      0.540069
     41 O6          5.4330    6.9360    0.4550 o         1 MOL     -0.568276
     42 C15         5.4160    5.0140   -2.1860 c3        1 MOL     -0.046532
     43 C16         6.4260    3.8580   -1.9610 c         1 MOL      0.649021
     44 O7          7.1600    3.6200   -2.9640 o         1 MOL     -0.712259
     45 O8          6.5100    3.2160   -0.8660 o         1 MOL     -0.712259
     46 H19         4.0610    7.3060   -1.5370 hn        1 MOL      0.286966
     47 H20         3.8700    4.4730   -0.9030 h1        1 MOL      0.031791
     48 H21         5.9810    5.9400   -2.3000 hc        1 MOL      0.006986
     49 H22         4.9940    4.9920   -3.1900 hc        1 MOL      0.006986
     50 N4          5.3370    4.7900    1.1150 n         1 MOL     -0.154363
     51 C17         5.9660    4.9310    2.4710 c3        1 MOL     -0.496316
     52 C18         6.2000    3.6230    3.2580 c         1 MOL      0.747060
     53 O9          6.4840    3.6800    4.4160 o         1 MOL     -0.608818
     54 H23         5.0280    3.8850    0.7950 hn        1 MOL      0.191472
     55 H24         5.2570    5.4650    3.0910 h1        1 MOL      0.176302
     56 H25         6.9460    5.4020    2.3590 h1        1 MOL      0.176302
     57 N5          5.9050    2.4490    2.6740 n         1 MOL     -0.515888
     58 C19         6.1830    1.1020    3.2710 c3        1 MOL      0.165095
     59 C20         7.1300    0.2720    2.3220 c         1 MOL      0.380236
     60 O10         8.0730   -0.3140    2.7450 o         1 MOL     -0.529225
     61 C21         4.9470    0.2870    3.5780 c3        1 MOL     -0.070655
     62 C22         4.0760    0.0510    2.3720 c         1 MOL      0.675669
     63 O11         3.4040    1.0030    1.9490 o         1 MOL     -0.695696
     64 O12         4.2140   -1.0430    1.7990 o         1 MOL     -0.695696
     65 H26         5.4990    2.5260    1.7450 hn        1 MOL      0.296236
     66 H27         6.7360    1.1700    4.2050 h1        1 MOL      0.034240
     67 H28         4.3560    0.7840    4.3580 hc        1 MOL     -0.008192
     68 H29         5.1970   -0.6700    4.0310 hc        1 MOL     -0.008192
     69 N6          6.7820    0.1720    1.0190 n         1 MOL     -0.123958
     70 C23         7.5550   -0.4450   -0.0010 c3        1 MOL     -0.452875
     71 C24         7.5340   -1.9560   -0.0100 c         1 MOL      0.493930
     72 O13         8.3960   -2.4900   -0.7490 o         1 MOL     -0.595089
     73 H30         6.0110    0.7300    0.6550 hn        1 MOL      0.255221
     74 H31         8.6160   -0.1950    0.0940 h1        1 MOL      0.195232
     75 H32         7.1110   -0.1570   -0.9480 h1        1 MOL      0.195232
     76 N7          6.6420   -2.6340    0.7040 n         1 MOL      0.122323
     77 C25         6.4890   -4.0870    0.8920 c3        1 MOL     -0.221288
     78 C26         6.0380   -4.8690   -0.3950 c         1 MOL      0.559695
     79 O14         6.3780   -6.0260   -0.5420 o         1 MOL     -0.532493
     80 C27         7.5710   -4.7700    1.5970 c3        1 MOL      0.057730
     81 C28         7.9590   -4.3380    2.9670 c3        1 MOL     -0.059659
     82 C29         6.8990   -4.4600    4.0550 c         1 MOL      0.679853
     83 N8          7.0570   -3.8020    5.2370 n         1 MOL     -0.885646
     84 O15         5.9900   -5.2650    3.9510 o         1 MOL     -0.553021
     85 H33         5.9250   -2.0490    1.1090 hn        1 MOL      0.034688
     86 H34         5.5910   -4.3480    1.4650 h1        1 MOL      0.109675
     87 H35         8.4920   -4.6650    1.0300 hc        1 MOL      0.019632
     88 H36         7.4260   -5.8420    1.7500 hc        1 MOL      0.019632
     89 H37         8.2290   -3.2830    3.0490 hc        1 MOL     -0.001087
     90 H38         8.8270   -4.9510    3.2080 hc        1 MOL     -0.001087
     91 H39         7.8320   -3.2040    5.4690 hn        1 MOL      0.376270
     92 H40         6.2790   -3.8430    5.8770 hn        1 MOL      0.376270
     93 N9          5.3040   -4.1320   -1.2620 n         1 MOL     -0.353698
     94 C30         4.7520   -4.6790   -2.4690 c3        1 MOL     -0.172156
     95 C31         3.2050   -4.5630   -2.7380 c         1 MOL      0.611169
     96 O16         2.6740   -5.1560   -3.7100 o         1 MOL     -0.590841
     97 C32         5.5770   -4.0700   -3.6450 c3        1 MOL      0.335508
     98 C33         5.4850   -2.5220   -3.8770 c3        1 MOL     -0.316813
     99 C34         7.0630   -4.3680   -3.5500 c3        1 MOL     -0.316813
    100 H41         5.0400   -3.1960   -0.9790 hn        1 MOL      0.239595
    101 H42         4.8860   -5.7560   -2.3710 h1        1 MOL      0.110483
    102 H43         5.3290   -4.5910   -4.5690 hc        1 MOL     -0.053176
    103 H44         5.9420   -2.2000   -4.8040 hc        1 MOL      0.072758
    104 H45         4.4280   -2.2770   -3.9500 hc        1 MOL      0.072758
    105 H46         5.9720   -1.9490   -3.0780 hc        1 MOL      0.072758
    106 H47         7.5790   -3.9410   -2.6830 hc        1 MOL      0.072758
    107 H48         7.1580   -5.4450   -3.4210 hc        1 MOL      0.072758
    108 H49         7.4820   -4.0210   -4.4820 hc        1 MOL      0.072758
    109 N10         2.5090   -3.7020   -2.0000 n         1 MOL     -0.564541
    110 C35         1.1660   -3.2060   -2.2440 c3        1 MOL      0.438186
    111 C36         0.3080   -3.2580   -0.9530 c         1 MOL      0.373776
    112 O17         0.8440   -3.0690    0.1410 o         1 MOL     -0.480462
    113 C37         1.3850   -1.8640   -2.7850 c3        1 MOL     -0.380662
    114 C38         0.0190   -1.2570   -2.9310 c         1 MOL      0.617626
    115 N11        -0.1770   -0.1770   -2.1450 n         1 MOL     -0.773802
    116 O18        -0.8610   -1.7090   -3.6110 o         1 MOL     -0.558009
    117 H50         3.0070   -3.1320   -1.3330 hn        1 MOL      0.266761
    118 H51         0.6030   -3.7660   -2.9960 h1        1 MOL      0.018041
    119 H52         1.8640   -1.9640   -3.7650 hc        1 MOL      0.118879
    120 H53         1.9970   -1.2550   -2.1290 hc        1 MOL      0.118879
    121 H54         0.5590    0.2150   -1.5670 hn        1 MOL      0.374732
    122 H55        -1.0420    0.3370   -2.1870 hn        1 MOL      0.374732
    123 N12        -1.0160   -3.3120   -1.0670 n         1 MOL     -0.494130
    124 C39        -2.0620   -3.3670   -0.0310 c3        1 MOL      0.351432
    125 C40        -3.4240   -3.7280   -0.5320 c         1 MOL      0.416916
    126 O19        -3.7020   -3.8120   -1.7150 o         1 MOL     -0.500018
    127 C41        -2.3100   -1.9330    0.5980 c3        1 MOL     -0.043582
    128 C42        -2.6900   -1.9540    2.0610 ca        1 MOL     -0.130633
    129 C43        -4.0070   -1.6540    2.5360 ca        1 MOL     -0.047259
    130 C44        -1.6760   -2.2720    2.9750 ca        1 MOL     -0.047259
    131 C45        -4.2450   -1.7870    3.8840 ca        1 MOL     -0.240692
    132 C46        -1.9370   -2.5100    4.2890 ca        1 MOL     -0.240692
    133 C47        -3.2280   -2.2570    4.7860 ca        1 MOL      0.285229
    134 O20        -3.5520   -2.4290    6.1230 oh        1 MOL     -0.507641
    135 H56        -1.3650   -3.4650   -1.9930 hn        1 MOL      0.255724
    136 H57        -1.7250   -4.0090    0.7780 h1        1 MOL      0.025155
    137 H58        -3.0500   -1.4060   -0.0060 hc        1 MOL      0.072082
    138 H59        -1.3880   -1.3560    0.5050 hc        1 MOL      0.072082
    139 H60        -4.7990   -1.3730    1.8470 ha        1 MOL      0.124800
    140 H61        -0.7000   -2.5000    2.5590 ha        1 MOL      0.124800
    141 H62        -5.2670   -1.6560    4.2280 ha        1 MOL      0.145747
    142 H63        -1.1380   -2.8640    4.9160 ha        1 MOL      0.145747
    143 H64        -4.4290   -2.1310    6.3930 ho        1 MOL      0.355512
    144 N13        -4.3520   -4.0380    0.4100 n         1 MOL     -0.600439
    145 C48        -5.8020   -4.3800    0.0680 c3        1 MOL      0.460857
    146 C49        -6.9060   -3.6270    0.9020 c         1 MOL      0.278367
    147 O21        -7.1450   -3.9380    2.0730 o         1 MOL     -0.537335
    148 C50        -5.9370   -5.8820    0.3080 c3        1 MOL     -0.070322
    149 C51        -5.3320   -6.8050   -0.7790 c3        1 MOL     -0.325567
    150 C52        -5.5350   -8.3430   -0.4490 c         1 MOL      0.702025
    151 O22        -5.0400   -8.7300    0.6530 o         1 MOL     -0.678724
    152 O23        -6.1340   -9.1810   -1.1500 o         1 MOL     -0.678724
    153 H65        -4.1650   -3.9350    1.3970 hn        1 MOL      0.292248
    154 H66        -5.8910   -4.1770   -1.0010 h1        1 MOL     -0.054222
    155 H67        -6.9930   -6.1750    0.3690 hc        1 MOL      0.053476
    156 H68        -5.4500   -6.0650    1.2690 hc        1 MOL      0.053476
    157 H69        -4.2450   -6.7150   -0.8000 hc        1 MOL      0.073562
    158 H70        -5.7590   -6.5270   -1.7490 hc        1 MOL      0.073562
    159 N14        -7.6230   -2.6160    0.3080 n         1 MOL     -0.360598
    160 C53        -7.2980   -1.9810   -0.9910 c3        1 MOL     -0.155889
    161 C54        -7.9390   -2.7000   -2.2090 c         1 MOL      0.584569
    162 O24        -9.0450   -3.1420   -2.0570 o         1 MOL     -0.553793
    163 C55        -7.5900   -0.4340   -1.0520 c3        1 MOL     -0.113950
    164 C56        -6.6990    0.3600   -0.1400 c3        1 MOL      0.279432
    165 C57        -6.9570    1.8760   -0.0850 c         1 MOL      0.792215
    166 O25        -6.0070    2.6650   -0.2590 o         1 MOL     -0.836689
    167 O26        -8.0450    2.3960    0.2990 o         1 MOL     -0.836689
    168 H71        -8.2820   -2.1800    0.9310 hn        1 MOL      0.331267
    169 H72        -6.2210   -2.0090   -1.1100 h1        1 MOL      0.121153
    170 H73        -8.6170   -0.2360   -0.7490 hc        1 MOL      0.010433
    171 H74        -7.4260    0.0110   -2.0370 hc        1 MOL      0.010433
    172 H75        -5.6750    0.2610   -0.4990 hc        1 MOL     -0.081410
    173 H76        -6.8480   -0.1160    0.8300 hc        1 MOL     -0.081410
    174 N15        -7.3120   -2.8140   -3.3600 n         1 MOL     -0.260862
    175 C58        -7.7950   -3.4430   -4.6230 c3        1 MOL     -0.258699
    176 H77        -7.1800   -3.1040   -5.4560 h1        1 MOL      0.114405
    177 H78        -7.7250   -4.5270   -4.5390 h1        1 MOL      0.114405
    178 H79        -8.8320   -3.1570   -4.7980 h1        1 MOL      0.114405
    179 H80        -6.3990   -2.3950   -3.3340 hn        1 MOL      0.236801
    180 Ca1        -6.9270    4.5490    1.3800 Ca        1 MOL      1.666026
    181 O27        -6.5580    2.4640    3.0180 oh        1 MOL     -0.786061
    182 H81        -6.8770    2.2450    3.8920 ho        1 MOL      0.381528
    183 H82        -5.6850    2.0830    2.9780 ho        1 MOL      0.381528
    184 O28        -7.8700    7.0070    1.7390 oh        1 MOL     -0.786061
    185 H83        -8.7500    7.3670    1.7150 ho        1 MOL      0.381528
    186 H84        -7.3200    7.7240    2.0400 ho        1 MOL      0.381528
    187 O29        -9.1410    4.4010    2.7340 oh        1 MOL     -0.786061
    188 H85        -9.5390    4.7080    3.5480 ho        1 MOL      0.381528
    189 H86        -9.8830    4.2330    2.1600 ho        1 MOL      0.381528
    190 O30        -6.5370    5.4450    3.8510 oh        1 MOL     -0.786061
    191 H87        -6.5820    6.3400    4.1670 ho        1 MOL      0.381528
    192 H88        -6.3890    4.9280    4.6480 ho        1 MOL      0.381528
@<TRIPOS>BOND
     1    1    2 1   
     2    1    4 1   
     3    1    5 1   
     4    1    6 1   
     5    2    3 2   
     6    2    7 1   
     7    7    8 1   
     8    7   15 1   
     9    8    9 1   
    10    8   11 1   
    11    8   16 1   
    12    9   10 2   
    13    9   19 1   
    14   11   12 1   
    15   11   17 1   
    16   11   18 1   
    17   12   13 1   
    18   12   14 1   
    19   19   20 1   
    20   19   27 1   
    21   20   21 1   
    22   20   23 1   
    23   20   28 1   
    24   21   22 2   
    25   21   38 1   
    26   23   24 1   
    27   23   25 1   
    28   23   29 1   
    29   24   26 1   
    30   24   30 1   
    31   24   31 1   
    32   25   32 1   
    33   25   33 1   
    34   25   34 1   
    35   26   35 1   
    36   26   36 1   
    37   26   37 1   
    38   38   39 1   
    39   38   46 1   
    40   39   40 1   
    41   39   42 1   
    42   39   47 1   
    43   40   41 2   
    44   40   50 1   
    45   42   43 1   
    46   42   48 1   
    47   42   49 1   
    48   43   44 1   
    49   43   45 1   
    50   50   51 1   
    51   50   54 1   
    52   51   52 1   
    53   51   55 1   
    54   51   56 1   
    55   52   53 2   
    56   52   57 1   
    57   57   58 1   
    58   57   65 1   
    59   58   59 1   
    60   58   61 1   
    61   58   66 1   
    62   59   60 2   
    63   59   69 1   
    64   61   62 1   
    65   61   67 1   
    66   61   68 1   
    67   62   63 1   
    68   62   64 1   
    69   69   70 1   
    70   69   73 1   
    71   70   71 1   
    72   70   74 1   
    73   70   75 1   
    74   71   72 2   
    75   71   76 1   
    76   76   77 1   
    77   76   85 1   
    78   77   78 1   
    79   77   80 1   
    80   77   86 1   
    81   78   79 2   
    82   78   93 1   
    83   80   81 1   
    84   80   87 1   
    85   80   88 1   
    86   81   82 1   
    87   81   89 1   
    88   81   90 1   
    89   82   83 1   
    90   82   84 2   
    91   83   91 1   
    92   83   92 1   
    93   93   94 1   
    94   93  100 1   
    95   94   95 1   
    96   94   97 1   
    97   94  101 1   
    98   95   96 2   
    99   95  109 1   
   100   97   98 1   
   101   97   99 1   
   102   97  102 1   
   103   98  103 1   
   104   98  104 1   
   105   98  105 1   
   106   99  106 1   
   107   99  107 1   
   108   99  108 1   
   109  109  110 1   
   110  109  117 1   
   111  110  111 1   
   112  110  113 1   
   113  110  118 1   
   114  111  112 2   
   115  111  123 1   
   116  113  114 1   
   117  113  119 1   
   118  113  120 1   
   119  114  115 1   
   120  114  116 2   
   121  115  121 1   
   122  115  122 1   
   123  123  124 1   
   124  123  135 1   
   125  124  125 1   
   126  124  127 1   
   127  124  136 1   
   128  125  126 2   
   129  125  144 1   
   130  127  128 1   
   131  127  137 1   
   132  127  138 1   
   133  128  129 ar  
   134  128  130 ar  
   135  129  131 ar  
   136  129  139 1   
   137  130  132 ar  
   138  130  140 1   
   139  131  133 ar  
   140  131  141 1   
   141  132  133 ar  
   142  132  142 1   
   143  133  134 1   
   144  134  143 1   
   145  144  145 1   
   146  144  153 1   
   147  145  146 1   
   148  145  148 1   
   149  145  154 1   
   150  146  147 2   
   151  146  159 1   
   152  148  149 1   
   153  148  155 1   
   154  148  156 1   
   155  149  150 1   
   156  149  157 1   
   157  149  158 1   
   158  150  151 1   
   159  150  152 1   
   160  159  160 1   
   161  159  168 1   
   162  160  161 1   
   163  160  163 1   
   164  160  169 1   
   165  161  162 2   
   166  161  174 1   
   167  163  164 1   
   168  163  170 1   
   169  163  171 1   
   170  164  165 1   
   171  164  172 1   
   172  164  173 1   
   173  165  166 1   
   174  165  167 1   
   175  174  175 1   
   176  174  179 1   
   177  175  176 1   
   178  175  177 1   
   179  175  178 1   
   180  181  182 1   
   181  181  183 1   
   182  184  185 1   
   183  184  186 1   
   184  187  188 1   
   185  187  189 1   
   186  190  191 1   
   187  190  192 1   
@<TRIPOS>SUBSTRUCTURE
     1 MOL         1 TEMP              0 ****  ****    0 ROOT
