@<TRIPOS>MOLECULE
MOL
  185   180     1     0     0
SMALL
resp


@<TRIPOS>ATOM
      1 C1         -5.6880    1.9320   -3.9490 c3        1 MOL     -0.380724
      2 C2         -6.2140    1.7990   -2.5540 c         1 MOL      0.578857
      3 O1         -5.5050    1.3650   -1.6590 o         1 MOL     -0.408582
      4 H1         -4.6970    1.4810   -4.0070 hc        1 MOL      0.107989
      5 H2         -6.3590    1.4230   -4.6410 hc        1 MOL      0.107989
      6 H3         -5.6230    2.9870   -4.2140 hc        1 MOL      0.107989
      7 N1         -7.4840    2.0490   -2.2960 n         1 MOL     -0.574642
      8 C3         -8.1550    2.1200   -1.0340 c3        1 MOL      0.294982
      9 C4         -7.8900    0.9410   -0.0760 c         1 MOL      0.465996
     10 O2         -7.5620    1.0730    1.0800 o         1 MOL     -0.504976
     11 C5         -7.9350    3.5080   -0.3430 c3        1 MOL     -0.382323
     12 C6         -7.8730    4.7730   -1.2260 c         1 MOL      0.764514
     13 O3         -6.9470    5.6600   -0.9650 o         1 MOL     -0.677353
     14 O4         -8.7950    5.0220   -2.0500 o         1 MOL     -0.677353
     15 H4         -8.0850    2.3280   -3.0680 hn        1 MOL      0.312007
     16 H5         -9.2150    2.0490   -1.2660 h1        1 MOL      0.010238
     17 H6         -6.9580    3.5170    0.1450 hc        1 MOL      0.103217
     18 H7         -8.7740    3.6260    0.3410 hc        1 MOL      0.103217
     19 N2         -7.9820   -0.2810   -0.6340 n         1 MOL     -0.576833
     20 C7         -8.0830   -1.6840   -0.0420 c3        1 MOL      0.415427
     21 C8         -6.6890   -2.2890    0.0940 c         1 MOL      0.395877
     22 O5         -6.4580   -3.4180    0.5400 o         1 MOL     -0.571990
     23 C9         -9.1810   -2.5490   -0.7380 c3        1 MOL     -0.333109
     24 C10        -9.7390   -3.5000    0.3140 c3        1 MOL      0.110913
     25 C11       -10.9870   -4.2240   -0.2260 c3        1 MOL     -0.020501
     26 C12       -11.5220   -5.2520    0.7670 c3        1 MOL     -0.018843
     27 N3        -12.9800   -5.3520    0.7670 n4        1 MOL     -0.396860
     28 H8         -8.2520   -0.1810   -1.6020 hn        1 MOL      0.244548
     29 H9         -8.4320   -1.6390    0.9860 h1        1 MOL      0.030456
     30 H10        -8.6640   -3.1920   -1.4560 hc        1 MOL      0.083602
     31 H11        -9.9370   -1.9240   -1.1990 hc        1 MOL      0.083602
     32 H12        -9.9850   -2.9980    1.2520 hc        1 MOL      0.011393
     33 H13        -8.9660   -4.2160    0.6240 hc        1 MOL      0.011393
     34 H14       -10.7650   -4.7720   -1.1370 hc        1 MOL      0.034603
     35 H15       -11.7830   -3.5120   -0.4210 hc        1 MOL      0.034603
     36 H16       -11.1510   -4.9110    1.7330 hx        1 MOL      0.097802
     37 H17       -11.0790   -6.1930    0.4400 hx        1 MOL      0.097802
     38 H18       -13.2480   -5.4200   -0.1980 hn        1 MOL      0.327627
     39 H19       -13.2520   -6.1280    1.3600 hn        1 MOL      0.327627
     40 H20       -13.3010   -4.4870    1.1800 hn        1 MOL      0.327627
     41 N4         -5.6590   -1.4790   -0.1920 n         1 MOL     -0.281262
     42 C13        -4.2920   -1.8370    0.0750 c3        1 MOL     -0.007938
     43 C14        -3.9240   -2.2400    1.5810 c         1 MOL      0.547203
     44 O6         -4.1780   -1.5010    2.5420 o         1 MOL     -0.481531
     45 C15        -3.4240   -0.7770   -0.6140 c3        1 MOL     -0.159700
     46 C16        -2.0080   -1.2720   -0.5120 c         1 MOL      0.667934
     47 O7         -1.3040   -0.8410    0.4420 o         1 MOL     -0.723504
     48 O8         -1.5190   -2.0320   -1.3820 o         1 MOL     -0.723504
     49 H21        -5.8760   -0.6340   -0.7020 hn        1 MOL      0.184610
     50 H22        -4.0960   -2.7460   -0.4970 h1        1 MOL      0.047443
     51 H23        -3.5780    0.0990    0.0190 hc        1 MOL      0.107510
     52 H24        -3.7620   -0.6060   -1.6390 hc        1 MOL      0.107510
     53 N5         -3.3130   -3.4150    1.8070 n         1 MOL     -0.272910
     54 C17        -2.7950   -4.0020    3.0110 c3        1 MOL     -0.084595
     55 C18        -1.8140   -3.1050    3.8130 c         1 MOL      0.482364
     56 O9         -1.8050   -3.2420    5.0410 o         1 MOL     -0.552668
     57 H25        -3.1650   -3.9150    0.9410 hn        1 MOL      0.224730
     58 H26        -2.3180   -4.9280    2.6850 h1        1 MOL      0.075502
     59 H27        -3.6490   -4.2620    3.6400 h1        1 MOL      0.075502
     60 N6         -1.0580   -2.1920    3.1950 n         1 MOL     -0.108536
     61 C19        -0.2580   -1.2360    3.9840 c3        1 MOL     -0.076899
     62 C20        -0.6150    0.2250    3.6610 c         1 MOL      0.426081
     63 O10         0.0780    1.1250    4.1250 o         1 MOL     -0.519396
     64 C21         1.2840   -1.6200    3.8930 c3        1 MOL     -0.120972
     65 C22         2.0530   -0.8840    2.7880 c         1 MOL      0.308311
     66 N7          3.2980   -0.4190    3.0670 n         1 MOL     -0.556984
     67 O11         1.6350   -0.8570    1.6560 o         1 MOL     -0.274541
     68 H28        -0.9930   -2.1310    2.1890 hn        1 MOL      0.055368
     69 H29        -0.4290   -1.3710    5.0530 h1        1 MOL      0.139697
     70 H30         1.3930   -2.6890    3.7220 hc        1 MOL      0.063316
     71 H31         1.7250   -1.4360    4.8790 hc        1 MOL      0.063316
     72 H32         3.7770   -0.6700    3.9170 hn        1 MOL      0.300995
     73 H33         3.8400   -0.1390    2.2580 hn        1 MOL      0.300995
     74 N8         -1.7750    0.5120    3.0190 n         1 MOL     -0.052900
     75 C23        -2.3410    1.9080    2.7830 c3        1 MOL     -0.415993
     76 C24        -1.5730    2.7810    1.7670 c         1 MOL      0.617347
     77 O12        -1.8040    3.9570    1.7020 o         1 MOL     -0.509844
     78 H34        -2.3800   -0.1710    2.5970 hn        1 MOL      0.053272
     79 H35        -2.4440    2.4850    3.7020 h1        1 MOL      0.197109
     80 H36        -3.3320    1.9140    2.3150 h1        1 MOL      0.197109
     81 N9         -0.6480    2.1870    0.9960 n         1 MOL     -0.428897
     82 C25         0.1380    2.8970   -0.0100 c3        1 MOL      0.086930
     83 C26         1.4430    2.1840   -0.2780 c         1 MOL      0.591771
     84 O13         1.4680    0.9640   -0.6020 o         1 MOL     -0.596307
     85 C27        -0.6580    2.9530   -1.3120 c3        1 MOL      0.036138
     86 C28        -1.7360    3.9650   -1.4130 ca        1 MOL     -0.010261
     87 C29        -1.4350    5.2920   -1.8880 ca        1 MOL     -0.239380
     88 C30        -3.0500    3.6250   -1.0190 ca        1 MOL     -0.239380
     89 C31        -2.4960    6.2150   -1.9240 ca        1 MOL     -0.169445
     90 C32        -4.0630    4.5500   -1.0160 ca        1 MOL     -0.169445
     91 C33        -3.7800    5.8950   -1.4360 ca        1 MOL      0.358422
     92 O14        -4.7610    6.8270   -1.4360 oh        1 MOL     -0.565082
     93 H37        -0.5400    1.1840    1.0340 hn        1 MOL      0.195195
     94 H38         0.3530    3.9020    0.3700 h1        1 MOL      0.053803
     95 H39        -1.1900    2.0080   -1.4790 hc        1 MOL      0.015121
     96 H40        -0.0180    3.1370   -2.1760 hc        1 MOL      0.015121
     97 H41        -0.4330    5.6060   -2.1230 ha        1 MOL      0.121685
     98 H42        -3.2650    2.6180   -0.6970 ha        1 MOL      0.121685
     99 H43        -2.3500    7.2130   -2.3040 ha        1 MOL      0.106859
    100 H44        -5.0490    4.3040   -0.6410 ha        1 MOL      0.106859
    101 H45        -5.5410    6.3820   -1.0980 ho        1 MOL      0.427922
    102 N10         2.4940    2.9790   -0.0460 n         1 MOL     -0.665313
    103 C34         3.8310    2.5000   -0.4220 c3        1 MOL      0.216120
    104 C35         4.5620    1.9030    0.7810 c         1 MOL      0.518785
    105 O15         4.7650    0.7360    0.8020 o         1 MOL     -0.376758
    106 C36         4.5860    3.5440   -1.2430 c3        1 MOL      0.068555
    107 C37         3.7770    3.9980   -2.4540 c3        1 MOL      0.160946
    108 C38         6.0070    3.1300   -1.6590 c3        1 MOL     -0.283736
    109 C39         3.3250    2.9860   -3.5760 c3        1 MOL     -0.257836
    110 H46         2.3040    3.9400    0.2160 hn        1 MOL      0.350393
    111 H47         3.7760    1.6500   -1.1020 h1        1 MOL     -0.020576
    112 H48         4.6970    4.4170   -0.6010 hc        1 MOL     -0.047060
    113 H49         4.4170    4.7250   -2.9570 hc        1 MOL     -0.028454
    114 H50         2.9200    4.5940   -2.1330 hc        1 MOL     -0.028454
    115 H51         6.6510    2.7850   -0.8510 hc        1 MOL      0.079875
    116 H52         5.9900    2.3630   -2.4330 hc        1 MOL      0.079875
    117 H53         6.5510    4.0020   -2.0130 hc        1 MOL      0.079875
    118 H54         2.7870    3.5600   -4.3300 hc        1 MOL      0.081151
    119 H55         4.1940    2.4570   -3.9570 hc        1 MOL      0.081151
    120 H56         2.5070    2.3960   -3.1600 hc        1 MOL      0.081151
    121 N11         4.9760    2.6950    1.8090 n         1 MOL     -0.399881
    122 C40         5.7120    2.1740    2.9790 c3        1 MOL     -0.203056
    123 C41         7.1410    1.6720    2.8090 c         1 MOL      0.609494
    124 O16         7.5100    0.6990    3.5010 o         1 MOL     -0.521239
    125 C42         5.6190    3.1160    4.1770 c3        1 MOL      0.277683
    126 O17         6.3570    4.3530    3.9560 oh        1 MOL     -0.615190
    127 H57         4.8180    3.6890    1.7430 hn        1 MOL      0.273947
    128 H58         5.1660    1.2400    3.1600 h1        1 MOL      0.044279
    129 H59         6.0050    2.6450    5.0740 h1        1 MOL      0.050575
    130 H60         4.5790    3.3290    4.4160 h1        1 MOL      0.050575
    131 H61         5.8850    4.8780    3.3200 ho        1 MOL      0.388268
    132 N12         7.7290    2.1570    1.7750 n         1 MOL     -0.378484
    133 C43         8.9910    1.5800    1.1940 c3        1 MOL      0.179020
    134 C44         8.7700    0.0530    0.7600 c         1 MOL      0.491670
    135 O18         9.6980   -0.7200    0.7300 o         1 MOL     -0.536377
    136 C45        10.1940    1.8390    2.0960 c3        1 MOL     -0.343069
    137 H62         7.4050    3.0680    1.4930 hn        1 MOL      0.240540
    138 H63         9.1850    2.1460    0.2860 h1        1 MOL      0.077867
    139 H64        11.0650    1.7490    1.4520 hc        1 MOL      0.104675
    140 H65        10.2490    2.8990    2.3010 hc        1 MOL      0.104675
    141 H66        10.1910    1.2760    3.0280 hc        1 MOL      0.104675
    142 N13         7.5780   -0.3150    0.3570 n         1 MOL     -0.354097
    143 C46         7.1630   -1.6940    0.2420 c3        1 MOL      0.495642
    144 C47         6.6810   -2.0270   -1.2560 c         1 MOL      0.240365
    145 O19         6.2470   -1.1300   -2.0160 o         1 MOL     -0.433847
    146 C48         6.1160   -2.1130    1.3510 c3        1 MOL     -0.280492
    147 H67         6.9320    0.4570    0.4450 hn        1 MOL     -0.034369
    148 H68         8.0270   -2.3330    0.4290 h1        1 MOL     -0.017264
    149 H69         5.0790   -2.1080    1.0010 hc        1 MOL      0.073292
    150 H70         6.3260   -3.0850    1.7990 hc        1 MOL      0.073292
    151 H71         6.2960   -1.4250    2.1800 hc        1 MOL      0.073292
    152 N14         6.7950   -3.2600   -1.6510 n         1 MOL     -0.451692
    153 C49         6.3570   -3.9160   -2.9200 c3        1 MOL     -0.071244
    154 C50         7.1180   -3.3490   -4.1740 c         1 MOL      0.454344
    155 O20         6.6290   -3.5050   -5.2910 o         1 MOL     -0.490784
    156 C51         4.8200   -3.8720   -3.1140 c3        1 MOL      0.143288
    157 C52         4.0620   -4.4430   -1.9520 c3        1 MOL     -0.097874
    158 C53         2.6170   -4.6040   -2.3930 c         1 MOL      0.581469
    159 O21         2.2710   -5.4770   -3.2290 o         1 MOL     -0.656513
    160 O22         1.6770   -3.8450   -2.0350 o         1 MOL     -0.656513
    161 H72         7.2790   -3.8700   -1.0150 hn        1 MOL      0.294245
    162 H73         6.7190   -4.9430   -2.9520 h1        1 MOL      0.113243
    163 H74         4.4500   -4.3170   -4.0440 hc        1 MOL      0.017654
    164 H75         4.5390   -2.8170   -3.0760 hc        1 MOL      0.017654
    165 H76         4.1780   -3.8010   -1.0830 hc        1 MOL     -0.006588
    166 H77         4.4520   -5.4460   -1.7570 hc        1 MOL     -0.006588
    167 N15         8.2520   -2.6850   -4.0120 n         1 MOL     -0.308855
    168 C54         8.8630   -1.7570   -4.9040 c3        1 MOL     -0.147513
    169 H78         9.5680   -2.2830   -5.5470 h1        1 MOL      0.088535
    170 H79         8.0970   -1.2820   -5.5170 h1        1 MOL      0.088535
    171 H80         9.3930   -0.9960   -4.3310 h1        1 MOL      0.088535
    172 H81         8.5830   -2.5180   -3.0750 hn        1 MOL      0.254112
    173 Ca1         1.0110   -1.6200   -0.7220 Ca        1 MOL      1.754081
    174 O23         2.3330   -3.6870    1.0330 oh        1 MOL     -0.892358
    175 H82         1.6270   -4.3280    1.1150 ho        1 MOL      0.429385
    176 H83         2.8950   -3.8520    1.7870 ho        1 MOL      0.429385
    177 O24         3.6930   -1.1450   -1.0420 oh        1 MOL     -0.892358
    178 H84         4.2490   -1.0550   -1.8160 ho        1 MOL      0.429385
    179 H85         4.2300   -0.7870   -0.3250 ho        1 MOL      0.429385
    180 O25         0.4830   -0.8110   -3.1750 oh        1 MOL     -0.892358
    181 H86         0.3160   -1.5900   -3.6940 ho        1 MOL      0.429385
    182 H87         0.0440   -0.1010   -3.6550 ho        1 MOL      0.429385
    183 O26        -0.3830   -4.0600    0.0750 oh        1 MOL     -0.892358
    184 H88        -1.0060   -4.2950   -0.6200 ho        1 MOL      0.429385
    185 H89        -0.1810   -4.8900    0.5050 ho        1 MOL      0.429385
@<TRIPOS>BOND
     1    1    2 1   
     2    1    4 1   
     3    1    5 1   
     4    1    6 1   
     5    2    3 2   
     6    2    7 1   
     7    7    8 1   
     8    7   15 1   
     9    8    9 1   
    10    8   11 1   
    11    8   16 1   
    12    9   10 2   
    13    9   19 1   
    14   11   12 1   
    15   11   17 1   
    16   11   18 1   
    17   12   13 1   
    18   12   14 1   
    19   19   20 1   
    20   19   28 1   
    21   20   21 1   
    22   20   23 1   
    23   20   29 1   
    24   21   22 2   
    25   21   41 1   
    26   23   24 1   
    27   23   30 1   
    28   23   31 1   
    29   24   25 1   
    30   24   32 1   
    31   24   33 1   
    32   25   26 1   
    33   25   34 1   
    34   25   35 1   
    35   26   27 1   
    36   26   36 1   
    37   26   37 1   
    38   27   38 1   
    39   27   39 1   
    40   27   40 1   
    41   41   42 1   
    42   41   49 1   
    43   42   43 1   
    44   42   45 1   
    45   42   50 1   
    46   43   44 2   
    47   43   53 1   
    48   45   46 1   
    49   45   51 1   
    50   45   52 1   
    51   46   47 1   
    52   46   48 1   
    53   53   54 1   
    54   53   57 1   
    55   54   55 1   
    56   54   58 1   
    57   54   59 1   
    58   55   56 2   
    59   55   60 1   
    60   60   61 1   
    61   60   68 1   
    62   61   62 1   
    63   61   64 1   
    64   61   69 1   
    65   62   63 2   
    66   62   74 1   
    67   64   65 1   
    68   64   70 1   
    69   64   71 1   
    70   65   66 1   
    71   65   67 2   
    72   66   72 1   
    73   66   73 1   
    74   74   75 1   
    75   74   78 1   
    76   75   76 1   
    77   75   79 1   
    78   75   80 1   
    79   76   77 2   
    80   76   81 1   
    81   81   82 1   
    82   81   93 1   
    83   82   83 1   
    84   82   85 1   
    85   82   94 1   
    86   83   84 2   
    87   83  102 1   
    88   85   86 1   
    89   85   95 1   
    90   85   96 1   
    91   86   87 ar  
    92   86   88 ar  
    93   87   89 ar  
    94   87   97 1   
    95   88   90 ar  
    96   88   98 1   
    97   89   91 ar  
    98   89   99 1   
    99   90   91 ar  
   100   90  100 1   
   101   91   92 1   
   102   92  101 1   
   103  102  103 1   
   104  102  110 1   
   105  103  104 1   
   106  103  106 1   
   107  103  111 1   
   108  104  105 2   
   109  104  121 1   
   110  106  107 1   
   111  106  108 1   
   112  106  112 1   
   113  107  109 1   
   114  107  113 1   
   115  107  114 1   
   116  108  115 1   
   117  108  116 1   
   118  108  117 1   
   119  109  118 1   
   120  109  119 1   
   121  109  120 1   
   122  121  122 1   
   123  121  127 1   
   124  122  123 1   
   125  122  125 1   
   126  122  128 1   
   127  123  124 2   
   128  123  132 1   
   129  125  126 1   
   130  125  129 1   
   131  125  130 1   
   132  126  131 1   
   133  132  133 1   
   134  132  137 1   
   135  133  134 1   
   136  133  136 1   
   137  133  138 1   
   138  134  135 2   
   139  134  142 1   
   140  136  139 1   
   141  136  140 1   
   142  136  141 1   
   143  142  143 1   
   144  142  147 1   
   145  143  144 1   
   146  143  146 1   
   147  143  148 1   
   148  144  145 2   
   149  144  152 1   
   150  146  149 1   
   151  146  150 1   
   152  146  151 1   
   153  152  153 1   
   154  152  161 1   
   155  153  154 1   
   156  153  156 1   
   157  153  162 1   
   158  154  155 2   
   159  154  167 1   
   160  156  157 1   
   161  156  163 1   
   162  156  164 1   
   163  157  158 1   
   164  157  165 1   
   165  157  166 1   
   166  158  159 1   
   167  158  160 1   
   168  167  168 1   
   169  167  172 1   
   170  168  169 1   
   171  168  170 1   
   172  168  171 1   
   173  174  175 1   
   174  174  176 1   
   175  177  178 1   
   176  177  179 1   
   177  180  181 1   
   178  180  182 1   
   179  183  184 1   
   180  183  185 1   
@<TRIPOS>SUBSTRUCTURE
     1 MOL         1 TEMP              0 ****  ****    0 ROOT
