@<TRIPOS>MOLECULE
MOL
  198   191     1     0     0
SMALL
resp


@<TRIPOS>ATOM
      1 C1         -1.9560   -4.5880    2.2240 c3        1 MOL     -0.214678
      2 C2         -0.8480   -4.7390    1.1100 c         1 MOL      0.547747
      3 O1         -0.2080   -3.6970    0.7350 o         1 MOL     -0.570433
      4 H1         -2.4770   -3.6390    2.0920 hc        1 MOL      0.047074
      5 H2         -2.6690   -5.4070    2.1410 hc        1 MOL      0.047074
      6 H3         -1.4880   -4.6110    3.2080 hc        1 MOL      0.047074
      7 N1         -0.5930   -5.9280    0.5990 n         1 MOL     -0.236783
      8 C3          0.4740   -6.3260   -0.3460 c3        1 MOL      0.003431
      9 C4          1.8510   -5.7230   -0.0010 c         1 MOL      0.791665
     10 O2          2.5000   -5.0290   -0.7710 o         1 MOL     -0.586181
     11 C5         -0.0110   -6.0000   -1.8020 c3        1 MOL     -0.355380
     12 C6         -1.4530   -6.1850   -2.0970 c         1 MOL      0.735534
     13 O3         -2.1550   -5.1430   -2.1860 o         1 MOL     -0.658653
     14 O4         -1.9910   -7.2860   -2.0850 o         1 MOL     -0.658653
     15 H4         -1.1930   -6.6640    0.9350 hn        1 MOL      0.213155
     16 H5          0.4950   -7.4080   -0.2480 h1        1 MOL      0.050415
     17 H6          0.6240   -6.5900   -2.4720 hc        1 MOL      0.092256
     18 H7          0.2410   -4.9670   -2.0400 hc        1 MOL      0.092256
     19 N2          2.2850   -5.9370    1.2100 n         1 MOL     -0.594284
     20 C7          3.5680   -5.3900    1.6500 c3        1 MOL     -0.016827
     21 C8          4.6230   -6.2840    1.0540 c         1 MOL      0.460011
     22 O5          4.4670   -7.4410    0.9050 o         1 MOL     -0.554289
     23 C9          3.7130   -5.0520    3.1320 c3        1 MOL      0.198905
     24 C10         3.5930   -6.2430    4.0440 c3        1 MOL      0.089975
     25 C11         2.6830   -3.9260    3.5190 c3        1 MOL     -0.295462
     26 C12         4.1420   -5.8980    5.4900 c3        1 MOL     -0.195708
     27 H8          1.6700   -6.2880    1.9360 hn        1 MOL      0.205671
     28 H9          3.7070   -4.4120    1.1930 h1        1 MOL      0.143115
     29 H10         4.7120   -4.6380    3.2530 hc        1 MOL      0.010547
     30 H11         4.1260   -7.1310    3.6900 hc        1 MOL     -0.002368
     31 H12         2.5580   -6.5110    4.2520 hc        1 MOL     -0.002368
     32 H13         1.6740   -4.3240    3.4830 hc        1 MOL      0.072877
     33 H14         2.9140   -3.5380    4.5170 hc        1 MOL      0.072877
     34 H15         2.9110   -3.1650    2.7640 hc        1 MOL      0.072877
     35 H16         5.1380   -5.4600    5.4500 hc        1 MOL      0.029565
     36 H17         3.4410   -5.2430    6.0000 hc        1 MOL      0.029565
     37 H18         4.2770   -6.8390    6.0150 hc        1 MOL      0.029565
     38 N3          5.7600   -5.7710    0.6150 n         1 MOL     -0.344104
     39 C13         6.1960   -4.3730    0.6880 c3        1 MOL     -0.070025
     40 C14         5.6600   -3.4810   -0.4420 c         1 MOL      0.361434
     41 O6          5.6540   -2.2680   -0.2010 o         1 MOL     -0.533960
     42 C15         7.7450   -4.2650    0.6660 c3        1 MOL     -0.134735
     43 C16         8.5940   -4.9420   -0.3670 c         1 MOL      0.688669
     44 O7          9.7880   -4.4880   -0.5090 o         1 MOL     -0.665065
     45 O8          8.1780   -5.9530   -0.9900 o         1 MOL     -0.665065
     46 H19         6.4700   -6.4270    0.3020 hn        1 MOL      0.259982
     47 H20         5.9030   -3.9480    1.6520 h1        1 MOL      0.068229
     48 H21         8.0450   -4.7060    1.6120 hc        1 MOL      0.039362
     49 H22         7.9710   -3.2020    0.7810 hc        1 MOL      0.039362
     50 N4          5.2200   -3.9520   -1.5990 n         1 MOL     -0.022720
     51 C17         4.6850   -3.2210   -2.7510 c3        1 MOL     -0.425460
     52 C18         5.6070   -2.3080   -3.5310 c         1 MOL      0.643139
     53 O9          6.4320   -2.7880   -4.3050 o         1 MOL     -0.574915
     54 H23         5.3440   -4.9260   -1.8300 hn        1 MOL      0.237968
     55 H24         3.7960   -2.6270   -2.5300 h1        1 MOL      0.148648
     56 H25         4.3710   -3.9960   -3.4530 h1        1 MOL      0.148648
     57 N5          5.4580   -1.0460   -3.2650 n         1 MOL     -0.459899
     58 C19         6.3970   -0.0420   -3.7490 c3        1 MOL      0.075513
     59 C20         7.3760    0.3520   -2.5850 c         1 MOL      0.537526
     60 O10         8.4370    0.8300   -2.9020 o         1 MOL     -0.586295
     61 C21         5.6850    1.1310   -4.3170 c3        1 MOL     -0.107923
     62 C22         4.6000    1.7190   -3.4620 c         1 MOL      0.706852
     63 O11         4.8690    2.3420   -2.4030 o         1 MOL     -0.664134
     64 O12         3.4480    1.5060   -3.8450 o         1 MOL     -0.664134
     65 H26         4.6720   -0.7140   -2.7340 hn        1 MOL      0.301875
     66 H27         7.0880   -0.4670   -4.4780 h1        1 MOL      0.067052
     67 H28         5.2670    0.8410   -5.2910 hc        1 MOL      0.006578
     68 H29         6.3740    1.9260   -4.6050 hc        1 MOL      0.006578
     69 N6          6.9500    0.2030   -1.3210 n         1 MOL     -0.184009
     70 C23         7.7290    0.5950   -0.1660 c3        1 MOL     -0.172728
     71 C24         7.6030    2.0510    0.2580 c         1 MOL      0.488618
     72 O13         8.1910    2.5470    1.2130 o         1 MOL     -0.617199
     73 H30         6.1350   -0.3770   -1.1390 hn        1 MOL      0.203888
     74 H31         8.7960    0.4360   -0.3350 h1        1 MOL      0.105077
     75 H32         7.4320   -0.0400    0.6630 h1        1 MOL      0.105077
     76 N7          6.6980    2.8370   -0.3480 n         1 MOL     -0.066265
     77 C25         6.4000    4.2380   -0.2870 c3        1 MOL      0.031594
     78 C26         5.6850    4.6740    1.0200 c         1 MOL      0.546163
     79 O14         5.8230    5.8010    1.3980 o         1 MOL     -0.530540
     80 C27         7.5200    5.0710   -0.9090 c3        1 MOL      0.070759
     81 C28         7.9940    4.7200   -2.3020 c3        1 MOL     -0.229401
     82 C29         8.8360    5.8970   -3.0050 c         1 MOL      0.645228
     83 N8          9.8720    5.6710   -3.7500 n         1 MOL     -0.764595
     84 O15         8.4420    7.0790   -2.9200 o         1 MOL     -0.581654
     85 H33         6.2070    2.4520   -1.1430 hn        1 MOL      0.004775
     86 H34         5.5220    4.2530   -0.9340 h1        1 MOL      0.076097
     87 H35         8.4130    5.1520   -0.2930 hc        1 MOL      0.002663
     88 H36         7.1200    6.0870   -0.8420 hc        1 MOL      0.002663
     89 H37         7.1200    4.5150   -2.9150 hc        1 MOL      0.074945
     90 H38         8.4260    3.7200   -2.3680 hc        1 MOL      0.074945
     91 H39        10.3820    4.7940   -3.7300 hn        1 MOL      0.343400
     92 H40        10.1860    6.4210   -4.3580 hn        1 MOL      0.343400
     93 N9          5.0590    3.7510    1.7600 n         1 MOL     -0.411076
     94 C30         4.4180    4.1680    3.0850 c3        1 MOL     -0.246036
     95 C31         2.9750    3.7590    3.2470 c         1 MOL      0.587092
     96 O16         2.3040    4.2560    4.1300 o         1 MOL     -0.574384
     97 C32         5.2370    3.6120    4.2540 c3        1 MOL      0.320684
     98 C33         5.3860    2.1240    4.2160 c3        1 MOL     -0.284608
     99 C34         6.6200    4.2250    4.4550 c3        1 MOL     -0.284608
    100 H41         4.8530    2.8490    1.3470 hn        1 MOL      0.235761
    101 H42         4.4830    5.2550    3.0470 h1        1 MOL      0.161354
    102 H43         4.6520    3.7940    5.1530 hc        1 MOL     -0.031592
    103 H44         6.0380    1.9190    3.3640 hc        1 MOL      0.063584
    104 H45         5.8220    1.6990    5.1200 hc        1 MOL      0.063584
    105 H46         4.4650    1.5530    4.1010 hc        1 MOL      0.063584
    106 H47         7.0010    3.9970    5.4520 hc        1 MOL      0.063584
    107 H48         7.3380    3.8250    3.7310 hc        1 MOL      0.063584
    108 H49         6.6080    5.3080    4.2870 hc        1 MOL      0.063584
    109 N10         2.3430    2.9470    2.3970 n         1 MOL     -0.386796
    110 C35         0.8740    2.7080    2.3740 c3        1 MOL      0.340165
    111 C36         0.2930    3.2740    1.1080 c         1 MOL      0.490353
    112 O17         1.0510    3.7700    0.2540 o         1 MOL     -0.525330
    113 C37         0.5750    1.2240    2.5330 c3        1 MOL     -0.371246
    114 C38         1.2050    0.6660    3.8120 c         1 MOL      0.705318
    115 N11         2.2160   -0.1450    3.7500 n         1 MOL     -0.828966
    116 O18         0.7420    1.0630    4.8820 o         1 MOL     -0.582696
    117 H50         2.8270    2.6440    1.5700 hn        1 MOL      0.242001
    118 H51         0.3440    3.1840    3.1970 h1        1 MOL      0.026198
    119 H52         1.0050    0.7610    1.6490 hc        1 MOL      0.118716
    120 H53        -0.4980    1.0390    2.5980 hc        1 MOL      0.118716
    121 H54         2.7460   -0.3910    2.9280 hn        1 MOL      0.371222
    122 H55         2.5300   -0.4980    4.6520 hn        1 MOL      0.371222
    123 N12        -1.0130    3.2190    0.8420 n         1 MOL     -0.540254
    124 C39        -1.8080    3.9160   -0.2110 c3        1 MOL      0.108671
    125 C40        -3.2970    4.0740    0.2240 c         1 MOL      0.611645
    126 O19        -3.8080    3.5220    1.1870 o         1 MOL     -0.518522
    127 C41        -1.6630    3.1680   -1.5110 c3        1 MOL     -0.055954
    128 C42        -2.3570    1.8070   -1.4810 ca        1 MOL      0.080494
    129 C43        -1.6710    0.6640   -0.9540 ca        1 MOL     -0.072139
    130 C44        -3.6110    1.7160   -2.1080 ca        1 MOL     -0.072139
    131 C45        -2.3720   -0.5250   -0.9590 ca        1 MOL     -0.339120
    132 C46        -4.2130    0.4930   -2.1410 ca        1 MOL     -0.339120
    133 C47        -3.6230   -0.6150   -1.5620 ca        1 MOL      0.371306
    134 O20        -4.2450   -1.8490   -1.5940 oh        1 MOL     -0.477064
    135 H56        -1.6160    2.6450    1.4060 hn        1 MOL      0.249120
    136 H57        -1.4410    4.9250   -0.4000 h1        1 MOL      0.106675
    137 H58        -0.5930    2.9900   -1.5320 hc        1 MOL      0.025043
    138 H59        -1.9810    3.6420   -2.4410 hc        1 MOL      0.025043
    139 H60        -0.6750    0.7540   -0.5570 ha        1 MOL      0.118177
    140 H61        -4.1050    2.5410   -2.6010 ha        1 MOL      0.118177
    141 H62        -1.8340   -1.3980   -0.6300 ha        1 MOL      0.187832
    142 H63        -5.1380    0.5160   -2.7010 ha        1 MOL      0.187832
    143 H64        -3.8250   -2.5060   -1.0460 ho        1 MOL      0.386995
    144 N13        -4.0530    4.9110   -0.5090 n         1 MOL     -0.822152
    145 C48        -5.4800    5.1580   -0.1930 c3        1 MOL      0.306798
    146 C49        -6.3020    4.7630   -1.3910 c         1 MOL      0.657391
    147 O21        -6.2150    5.5160   -2.3670 o         1 MOL     -0.579434
    148 C50        -5.4780    6.6390    0.0830 c3        1 MOL      0.150215
    149 C51        -6.8980    7.2200    0.1830 c3        1 MOL     -0.280967
    150 C52        -6.8820    8.7480    0.4520 c         1 MOL      0.706989
    151 O22        -6.5810    9.1940    1.6140 o         1 MOL     -0.648640
    152 O23        -7.1670    9.5470   -0.4860 o         1 MOL     -0.648640
    153 H65        -3.6480    5.4170   -1.2780 hn        1 MOL      0.374946
    154 H66        -5.8630    4.7030    0.7270 h1        1 MOL     -0.026172
    155 H67        -4.9160    7.2530   -0.6120 hc        1 MOL     -0.014417
    156 H68        -5.0650    6.8360    1.0670 hc        1 MOL     -0.014417
    157 H69        -7.4820    6.6710    0.9250 hc        1 MOL      0.039812
    158 H70        -7.3860    6.9890   -0.7570 hc        1 MOL      0.039812
    159 N14        -7.0900    3.7170   -1.4090 n         1 MOL     -0.943183
    160 C53        -6.9060    2.4560   -0.5340 c3        1 MOL      1.047301
    161 C54        -7.2740    2.6680    0.8830 c         1 MOL      0.766054
    162 O24        -8.2650    3.3880    1.2160 o         1 MOL     -0.695558
    163 C55        -7.8160    1.3600   -1.1070 c3        1 MOL     -0.770225
    164 C56        -7.7390    0.0640   -0.3800 c3        1 MOL     -1.133343
    165 C57        -8.4760   -1.0100   -1.2260 c         1 MOL      1.406571
    166 O25        -9.7340   -1.0960   -1.2150 o         1 MOL     -0.742995
    167 O26        -7.8610   -1.6840   -2.0000 o         1 MOL     -0.742995
    168 H71        -7.5790    3.4500   -2.2490 hn        1 MOL      0.413623
    169 H72        -5.8870    2.1020   -0.6260 h1        1 MOL     -0.211691
    170 H73        -7.5530    1.2290   -2.1590 hc        1 MOL      0.161169
    171 H74        -8.8590    1.6800   -1.1500 hc        1 MOL      0.161169
    172 H75        -8.1800    0.2060    0.6070 hc        1 MOL      0.206778
    173 H76        -6.7270   -0.2870   -0.2510 hc        1 MOL      0.206778
    174 N15        -6.3860    2.2930    1.8440 n         1 MOL     -0.162266
    175 C58        -6.4550    2.2920    3.2950 c3        1 MOL     -0.235716
    176 H77        -7.2780    2.9270    3.6190 h1        1 MOL      0.082044
    177 H78        -6.6200    1.2750    3.6500 h1        1 MOL      0.082044
    178 H79        -5.5190    2.6730    3.7040 h1        1 MOL      0.082044
    179 H80        -5.5100    2.1230    1.3790 hn        1 MOL      0.123224
    180 Ca1       -11.0690   -3.0320   -0.1090 Ca        1 MOL      1.602679
    181 O27       -11.0770   -5.2750    1.6190 oh        1 MOL     -0.932546
    182 H81       -11.7870   -5.8950    1.7950 ho        1 MOL      0.417661
    183 H82       -10.3380   -5.6150    2.1280 ho        1 MOL      0.417661
    184 O28        -9.7190   -5.1560   -1.0840 oh        1 MOL     -0.932546
    185 H83       -10.2700   -5.9280   -1.2200 ho        1 MOL      0.417661
    186 H84        -8.8870   -5.5130   -0.7770 ho        1 MOL      0.417661
    187 O29       -11.2830   -3.5020   -2.7500 oh        1 MOL     -0.932546
    188 H85       -11.6490   -2.8760   -3.3810 ho        1 MOL      0.417661
    189 H86       -10.5900   -3.9450   -3.2280 ho        1 MOL      0.417661
    190 O30       -12.9060   -4.7890   -0.9760 oh        1 MOL     -0.932546
    191 H87       -12.6330   -4.8690   -1.8920 ho        1 MOL      0.417661
    192 H88       -13.7680   -5.2000   -0.9490 ho        1 MOL      0.417661
    193 O31       -13.3600   -1.4620   -0.1460 oh        1 MOL     -0.932546
    194 H89       -14.3120   -1.6020   -0.1480 ho        1 MOL      0.417661
    195 H90       -13.2480   -0.5390   -0.3320 ho        1 MOL      0.417661
    196 O32        -8.9330   -2.8550    1.2700 oh        1 MOL     -0.932546
    197 H91        -8.5140   -3.6720    1.5040 ho        1 MOL      0.417661
    198 H92        -8.6280   -2.2190    1.9200 ho        1 MOL      0.417661
@<TRIPOS>BOND
     1    1    2 1   
     2    1    4 1   
     3    1    5 1   
     4    1    6 1   
     5    2    3 2   
     6    2    7 1   
     7    7    8 1   
     8    7   15 1   
     9    8    9 1   
    10    8   11 1   
    11    8   16 1   
    12    9   10 2   
    13    9   19 1   
    14   11   12 1   
    15   11   17 1   
    16   11   18 1   
    17   12   13 1   
    18   12   14 1   
    19   19   20 1   
    20   19   27 1   
    21   20   21 1   
    22   20   23 1   
    23   20   28 1   
    24   21   22 2   
    25   21   38 1   
    26   23   24 1   
    27   23   25 1   
    28   23   29 1   
    29   24   26 1   
    30   24   30 1   
    31   24   31 1   
    32   25   32 1   
    33   25   33 1   
    34   25   34 1   
    35   26   35 1   
    36   26   36 1   
    37   26   37 1   
    38   38   39 1   
    39   38   46 1   
    40   39   40 1   
    41   39   42 1   
    42   39   47 1   
    43   40   41 2   
    44   40   50 1   
    45   42   43 1   
    46   42   48 1   
    47   42   49 1   
    48   43   44 1   
    49   43   45 1   
    50   50   51 1   
    51   50   54 1   
    52   51   52 1   
    53   51   55 1   
    54   51   56 1   
    55   52   53 2   
    56   52   57 1   
    57   57   58 1   
    58   57   65 1   
    59   58   59 1   
    60   58   61 1   
    61   58   66 1   
    62   59   60 2   
    63   59   69 1   
    64   61   62 1   
    65   61   67 1   
    66   61   68 1   
    67   62   63 1   
    68   62   64 1   
    69   69   70 1   
    70   69   73 1   
    71   70   71 1   
    72   70   74 1   
    73   70   75 1   
    74   71   72 2   
    75   71   76 1   
    76   76   77 1   
    77   76   85 1   
    78   77   78 1   
    79   77   80 1   
    80   77   86 1   
    81   78   79 2   
    82   78   93 1   
    83   80   81 1   
    84   80   87 1   
    85   80   88 1   
    86   81   82 1   
    87   81   89 1   
    88   81   90 1   
    89   82   83 1   
    90   82   84 2   
    91   83   91 1   
    92   83   92 1   
    93   93   94 1   
    94   93  100 1   
    95   94   95 1   
    96   94   97 1   
    97   94  101 1   
    98   95   96 2   
    99   95  109 1   
   100   97   98 1   
   101   97   99 1   
   102   97  102 1   
   103   98  103 1   
   104   98  104 1   
   105   98  105 1   
   106   99  106 1   
   107   99  107 1   
   108   99  108 1   
   109  109  110 1   
   110  109  117 1   
   111  110  111 1   
   112  110  113 1   
   113  110  118 1   
   114  111  112 2   
   115  111  123 1   
   116  113  114 1   
   117  113  119 1   
   118  113  120 1   
   119  114  115 1   
   120  114  116 2   
   121  115  121 1   
   122  115  122 1   
   123  123  124 1   
   124  123  135 1   
   125  124  125 1   
   126  124  127 1   
   127  124  136 1   
   128  125  126 2   
   129  125  144 1   
   130  127  128 1   
   131  127  137 1   
   132  127  138 1   
   133  128  129 ar  
   134  128  130 ar  
   135  129  131 ar  
   136  129  139 1   
   137  130  132 ar  
   138  130  140 1   
   139  131  133 ar  
   140  131  141 1   
   141  132  133 ar  
   142  132  142 1   
   143  133  134 1   
   144  134  143 1   
   145  144  145 1   
   146  144  153 1   
   147  145  146 1   
   148  145  148 1   
   149  145  154 1   
   150  146  147 2   
   151  146  159 1   
   152  148  149 1   
   153  148  155 1   
   154  148  156 1   
   155  149  150 1   
   156  149  157 1   
   157  149  158 1   
   158  150  151 1   
   159  150  152 1   
   160  159  160 1   
   161  159  168 1   
   162  160  161 1   
   163  160  163 1   
   164  160  169 1   
   165  161  162 2   
   166  161  174 1   
   167  163  164 1   
   168  163  170 1   
   169  163  171 1   
   170  164  165 1   
   171  164  172 1   
   172  164  173 1   
   173  165  166 1   
   174  165  167 1   
   175  174  175 1   
   176  174  179 1   
   177  175  176 1   
   178  175  177 1   
   179  175  178 1   
   180  181  182 1   
   181  181  183 1   
   182  184  185 1   
   183  184  186 1   
   184  187  188 1   
   185  187  189 1   
   186  190  191 1   
   187  190  192 1   
   188  193  194 1   
   189  193  195 1   
   190  196  197 1   
   191  196  198 1   
@<TRIPOS>SUBSTRUCTURE
     1 MOL         1 TEMP              0 ****  ****    0 ROOT
