@<TRIPOS>MOLECULE
MOL
  195   189     1     0     0
SMALL
resp


@<TRIPOS>ATOM
      1 C1         -4.8110    6.3820    1.8160 c3        1 MOL     -0.310566
      2 C2         -4.7700    4.8390    1.6460 c         1 MOL      0.656625
      3 O1         -4.4830    4.1630    2.6420 o         1 MOL     -0.574246
      4 H1         -3.8280    6.7390    2.1270 hc        1 MOL      0.078399
      5 H2         -5.0820    6.8450    0.8670 hc        1 MOL      0.078399
      6 H3         -5.5480    6.6460    2.5730 hc        1 MOL      0.078399
      7 N1         -5.0740    4.3120    0.4580 n         1 MOL     -0.515268
      8 C3         -4.8950    2.9250   -0.0160 c3        1 MOL      0.006329
      9 C4         -3.4420    2.4640    0.0250 c         1 MOL      0.374011
     10 O2         -3.2000    1.2780   -0.0820 o         1 MOL     -0.381044
     11 C5         -5.5360    2.7510   -1.4020 c3        1 MOL     -0.461907
     12 C6         -5.2360    3.9510   -2.2110 c         1 MOL      0.871329
     13 O3         -5.7660    5.0570   -2.0930 o         1 MOL     -0.734796
     14 O4         -4.4830    3.8070   -3.1900 o         1 MOL     -0.734796
     15 H4         -5.3730    5.0180   -0.2090 hn        1 MOL      0.295047
     16 H5         -5.4820    2.3190    0.6760 h1        1 MOL      0.237150
     17 H6         -6.5830    2.5280   -1.1880 hc        1 MOL      0.112683
     18 H7         -5.1810    1.8150   -1.8480 hc        1 MOL      0.112683
     19 N2         -2.4330    3.3800    0.0080 n         1 MOL     -0.349543
     20 C7         -1.0020    2.9690   -0.1680 c3        1 MOL     -0.161793
     21 C8         -0.3550    2.7540    1.1550 c         1 MOL      0.776793
     22 O5         -0.5510    3.5920    1.9990 o         1 MOL     -0.602468
     23 C9         -0.2030    4.1010   -0.8890 c3        1 MOL     -0.040457
     24 C10        -0.7180    4.3300   -2.3340 c3        1 MOL      0.429787
     25 C11        -0.0320    5.5200   -2.9790 c3        1 MOL     -0.151786
     26 C12         1.4010    5.4670   -3.1820 c3        1 MOL     -0.003384
     27 N3          1.7970    4.4670   -4.1350 n4        1 MOL     -0.418737
     28 H8         -2.7070    4.3520   -0.0390 hn        1 MOL      0.297012
     29 H9         -0.8980    2.0780   -0.7780 h1        1 MOL      0.192443
     30 H10         0.8300    3.7770   -0.9720 hc        1 MOL      0.026031
     31 H11        -0.3340    5.0020   -0.2780 hc        1 MOL      0.026031
     32 H12        -1.7880    4.5080   -2.3340 hc        1 MOL     -0.131991
     33 H13        -0.5010    3.4160   -2.9020 hc        1 MOL     -0.131991
     34 H14        -0.3180    6.4350   -2.4660 hc        1 MOL      0.054450
     35 H15        -0.4550    5.5150   -3.9860 hc        1 MOL      0.054450
     36 H16         1.9380    5.3570   -2.2430 hx        1 MOL      0.104644
     37 H17         1.6810    6.4580   -3.5430 hx        1 MOL      0.104644
     38 H18         1.4350    3.5470   -3.9310 hn        1 MOL      0.336530
     39 H19         1.4680    4.6230   -5.0790 hn        1 MOL      0.336530
     40 H20         2.7930    4.3340   -4.1400 hn        1 MOL      0.336530
     41 N4          0.5880    1.9020    1.5130 n         1 MOL     -0.510345
     42 C13         1.1040    0.7270    0.8330 c3        1 MOL      0.165270
     43 C14         1.6850    0.9440   -0.5540 c         1 MOL      0.024136
     44 O6          1.1150    0.3830   -1.4690 o         1 MOL     -0.395670
     45 C15         0.2660   -0.5710    0.9640 c3        1 MOL      0.020631
     46 C16         0.0080   -1.0710    2.4120 c         1 MOL      0.503330
     47 O7          0.6090   -0.6100    3.4000 o         1 MOL     -0.717623
     48 O8         -0.6690   -2.1110    2.4920 o         1 MOL     -0.717623
     49 H21         0.7400    1.8930    2.5150 hn        1 MOL      0.312089
     50 H22         1.9960    0.4950    1.4110 h1        1 MOL      0.032627
     51 H23         0.8780   -1.3790    0.5700 hc        1 MOL      0.066270
     52 H24        -0.6840   -0.4530    0.4420 hc        1 MOL      0.066270
     53 N5          2.7140    1.8220   -0.7780 n         1 MOL     -0.128133
     54 C17         3.5180    2.4940    0.2060 c3        1 MOL      0.024353
     55 C18         4.2170    3.7280   -0.3200 c         1 MOL      0.507248
     56 O9          3.6480    4.4130   -1.1360 o         1 MOL     -0.578933
     57 H25         3.0580    1.7600   -1.7270 hn        1 MOL      0.222302
     58 H26         4.2710    1.7990    0.5580 h1        1 MOL      0.020225
     59 H27         2.9650    2.7440    1.1120 h1        1 MOL      0.020225
     60 N6          5.4520    4.1700    0.0750 n         1 MOL     -0.345896
     61 C19         6.3200    3.6350    1.2110 c3        1 MOL     -0.052538
     62 C20         7.2450    2.4800    0.9050 c         1 MOL      0.567820
     63 O10         7.7060    2.2770   -0.2080 o         1 MOL     -0.492036
     64 C21         7.1470    4.8120    1.7930 c3        1 MOL     -0.288322
     65 C22         7.8620    5.7640    0.7620 c         1 MOL      0.777339
     66 O11         8.6020    6.6690    1.1970 o         1 MOL     -0.690795
     67 O12         7.6520    5.6780   -0.5030 o         1 MOL     -0.690795
     68 H28         5.8060    5.0050   -0.3610 hn        1 MOL      0.261680
     69 H29         5.6730    3.3940    2.0570 h1        1 MOL      0.055825
     70 H30         7.8970    4.4430    2.4960 hc        1 MOL      0.063175
     71 H31         6.4140    5.4820    2.2420 hc        1 MOL      0.063175
     72 N7          7.3440    1.5360    1.8660 n         1 MOL     -0.270120
     73 C23         8.1010    0.3090    1.7750 c3        1 MOL     -0.222415
     74 C24         7.3840   -0.7740    1.0200 c         1 MOL      0.594559
     75 O13         7.9620   -1.2470    0.0160 o         1 MOL     -0.522195
     76 H32         6.9350    1.7860    2.7600 hn        1 MOL      0.207279
     77 H33         8.4280   -0.0100    2.7580 h1        1 MOL      0.121112
     78 H34         9.0850    0.4220    1.3030 h1        1 MOL      0.121112
     79 N8          6.1260   -1.1000    1.4060 n         1 MOL     -0.627619
     80 C25         5.4720   -2.2520    0.6400 c3        1 MOL      0.142205
     81 C26         4.6920   -1.8410   -0.5150 c         1 MOL      0.626915
     82 O14         4.0360   -0.7970   -0.5320 o         1 MOL     -0.516913
     83 C27         4.5880   -2.9730    1.6530 c3        1 MOL      0.326462
     84 C28         5.3400   -3.9130    2.5350 c3        1 MOL     -0.435520
     85 O15         3.6430   -3.8520    1.0930 oh        1 MOL     -0.687446
     86 H35         5.6500   -0.5620    2.1110 hn        1 MOL      0.315276
     87 H36         6.2430   -2.9460    0.3020 h1        1 MOL      0.047417
     88 H37         4.0570   -2.1820    2.1780 h1        1 MOL      0.007338
     89 H38         3.2230   -4.3230    1.8220 ho        1 MOL      0.440602
     90 H39         4.7250   -4.6390    3.0620 hc        1 MOL      0.110774
     91 H40         6.0690   -4.3650    1.8710 hc        1 MOL      0.110774
     92 H41         5.8740   -3.3790    3.3190 hc        1 MOL      0.110774
     93 N9          4.6910   -2.6280   -1.5670 n         1 MOL     -0.372650
     94 C29         4.2550   -2.2010   -2.9000 c3        1 MOL     -0.111331
     95 C30         2.7650   -2.6580   -3.2320 c         1 MOL      0.318139
     96 O16         2.2680   -2.3630   -4.3050 o         1 MOL     -0.505493
     97 C31         5.3530   -2.3890   -3.9660 c3        1 MOL      0.029517
     98 C32         5.7390   -3.8530   -4.3350 c3        1 MOL      0.049664
     99 C33         6.5760   -1.6100   -3.5390 c3        1 MOL     -0.144467
    100 C34         4.5640   -4.8300   -4.5850 c3        1 MOL     -0.039406
    101 H42         5.1940   -3.5020   -1.5420 hn        1 MOL      0.297511
    102 H43         4.2240   -1.1140   -2.8490 h1        1 MOL      0.132729
    103 H44         5.0120   -1.8960   -4.8790 hc        1 MOL      0.056614
    104 H45         6.3390   -4.3200   -3.5450 hc        1 MOL     -0.017012
    105 H46         6.3010   -3.7870   -5.2660 hc        1 MOL     -0.017012
    106 H47         6.9910   -1.8590   -2.5630 hc        1 MOL      0.048021
    107 H48         7.2970   -1.8840   -4.3170 hc        1 MOL      0.048021
    108 H49         6.4800   -0.5290   -3.5530 hc        1 MOL      0.048021
    109 H50         4.0000   -4.9620   -3.6670 hc        1 MOL      0.011289
    110 H51         3.8330   -4.5470   -5.3400 hc        1 MOL      0.011289
    111 H52         4.9470   -5.7790   -4.9490 hc        1 MOL      0.011289
    112 N10         2.1000   -3.3410   -2.2760 n         1 MOL      0.261835
    113 C35         0.9830   -4.1840   -2.6120 c3        1 MOL     -0.091479
    114 C36        -0.3940   -3.5380   -2.8700 c         1 MOL      0.400860
    115 O17        -1.1840   -3.9640   -3.7200 o         1 MOL     -0.509286
    116 C37         0.9900   -5.3300   -1.5540 c3        1 MOL      0.156623
    117 C38         0.4380   -4.7690   -0.1800 c3        1 MOL     -0.374347
    118 O18         2.2280   -5.8870   -1.2310 oh        1 MOL     -0.610537
    119 H53         2.5600   -3.5660   -1.4030 hn        1 MOL      0.037693
    120 H54         1.2980   -4.6160   -3.5550 h1        1 MOL      0.066662
    121 H55         0.3210   -6.1130   -1.9120 h1        1 MOL      0.061066
    122 H56         1.9410   -6.6670   -0.7670 ho        1 MOL      0.411876
    123 H57        -0.6600   -4.7400   -0.2050 hc        1 MOL      0.109280
    124 H58         0.7530   -5.3470    0.6860 hc        1 MOL      0.109280
    125 H59         0.8980   -3.7880   -0.0560 hc        1 MOL      0.109280
    126 N11        -0.5520   -2.3390   -2.2350 n         1 MOL     -0.051966
    127 C39        -1.7720   -1.5370   -2.1910 c3        1 MOL      0.099450
    128 C40        -3.0230   -2.2400   -1.6550 c         1 MOL      0.239277
    129 O19        -3.2260   -3.4930   -1.8490 o         1 MOL     -0.477986
    130 C41        -2.0890   -0.9370   -3.5910 c3        1 MOL      0.225219
    131 C42        -1.0270    0.0290   -3.8740 c3        1 MOL     -0.169319
    132 O20        -3.3010   -0.1350   -3.5530 oh        1 MOL     -0.662242
    133 H60         0.2800   -1.9780   -1.7950 hn        1 MOL     -0.056485
    134 H61        -1.4920   -0.6730   -1.5830 h1        1 MOL      0.038678
    135 H62        -2.0670   -1.7610   -4.3130 h1        1 MOL      0.047164
    136 H63        -3.2740    0.4230   -4.3290 ho        1 MOL      0.417511
    137 H64        -0.0830   -0.4990   -4.0330 hc        1 MOL      0.030891
    138 H65        -1.2140    0.5890   -4.7910 hc        1 MOL      0.030891
    139 H66        -0.9770    0.7200   -3.0320 hc        1 MOL      0.030891
    140 N12        -4.0030   -1.5140   -1.0430 n         1 MOL     -0.102584
    141 C43        -5.2960   -2.0700   -0.5900 c3        1 MOL     -0.019345
    142 C44        -5.8140   -1.5560    0.7390 c         1 MOL      0.538191
    143 O21        -6.8290   -2.0430    1.2800 o         1 MOL     -0.588918
    144 C45        -6.4450   -1.7690   -1.6760 c3        1 MOL      0.013328
    145 C46        -6.0490   -2.2010   -3.1320 c3        1 MOL      0.060234
    146 C47        -7.1590   -1.8080   -4.0750 c3        1 MOL     -0.035749
    147 C48        -6.5620   -2.3350   -5.3540 c3        1 MOL      0.092910
    148 N13        -7.5080   -2.0570   -6.5110 n4        1 MOL     -0.399349
    149 H67        -3.9190   -0.5120   -1.1820 hn        1 MOL      0.271018
    150 H68        -5.1880   -3.1560   -0.5760 h1        1 MOL      0.102363
    151 H69        -6.6060   -0.6830   -1.6770 hc        1 MOL     -0.009291
    152 H70        -7.3620   -2.2140   -1.2980 hc        1 MOL     -0.009291
    153 H71        -5.9230   -3.2820   -3.0780 hc        1 MOL      0.006832
    154 H72        -5.1440   -1.7290   -3.5060 hc        1 MOL      0.006832
    155 H73        -7.2690   -0.7280   -4.0600 hc        1 MOL      0.038334
    156 H74        -8.0960   -2.2970   -3.8090 hc        1 MOL      0.038334
    157 H75        -6.3350   -3.3940   -5.3000 hx        1 MOL      0.071703
    158 H76        -5.6650   -1.7570   -5.5780 hx        1 MOL      0.071703
    159 H77        -7.4330   -1.1090   -6.8320 hn        1 MOL      0.314751
    160 H78        -7.2150   -2.5510   -7.3450 hn        1 MOL      0.314751
    161 H79        -8.4500   -2.4140   -6.4260 hn        1 MOL      0.314751
    162 N14        -5.2270   -0.5240    1.3060 n         1 MOL     -0.312591
    163 C49        -5.6070    0.0120    2.6500 c3        1 MOL      0.037595
    164 C50        -6.8480    0.9160    2.6660 c         1 MOL      0.325396
    165 O22        -6.7210    2.0980    3.0930 o         1 MOL     -0.459511
    166 C51        -4.3780    0.5810    3.2980 c3        1 MOL      0.288820
    167 C52        -3.0840   -0.3390    3.2350 c3        1 MOL     -0.145288
    168 C53        -3.1720   -1.4520    4.2440 c         1 MOL      0.605985
    169 O23        -3.9870   -2.4710    4.1830 o         1 MOL     -0.677801
    170 O24        -2.3010   -1.5010    5.0950 o         1 MOL     -0.677801
    171 H80        -4.3610   -0.2490    0.8700 hn        1 MOL     -0.058118
    172 H81        -5.8240   -0.9030    3.2010 h1        1 MOL      0.065779
    173 H82        -4.6550    0.7160    4.3440 hc        1 MOL     -0.047934
    174 H83        -4.1530    1.5690    2.8990 hc        1 MOL     -0.047934
    175 H84        -2.2050    0.2480    3.4920 hc        1 MOL      0.026481
    176 H85        -2.8430   -0.6850    2.2270 hc        1 MOL      0.026481
    177 N15        -8.0050    0.3360    2.4140 n         1 MOL     -0.245134
    178 C54        -9.2500    1.1060    2.1950 c3        1 MOL     -0.223166
    179 H86        -9.6680    1.4000    3.1580 h1        1 MOL      0.098240
    180 H87        -9.0290    1.9960    1.6080 h1        1 MOL      0.098240
    181 H88        -9.9710    0.4870    1.6610 h1        1 MOL      0.098240
    182 H89        -8.0710   -0.6640    2.2690 hn        1 MOL      0.275778
    183 Ca1         0.1310   -2.5360    5.1430 Ca        1 MOL      1.743739
    184 O25         2.7500   -2.3550    5.0670 oh        1 MOL     -0.833840
    185 H90         3.3170   -3.0050    4.6710 ho        1 MOL      0.409379
    186 H91         3.2280   -1.5340    4.9800 ho        1 MOL      0.409379
    187 O26        -0.8530   -2.1420    7.5810 oh        1 MOL     -0.833840
    188 H92        -1.7190   -2.5350    7.5780 ho        1 MOL      0.409379
    189 H93        -0.4920   -2.3700    8.4420 ho        1 MOL      0.409379
    190 O27         1.0750   -4.2640    3.1920 oh        1 MOL     -0.833840
    191 H94         1.0200   -5.2210    3.1480 ho        1 MOL      0.409379
    192 H95         0.5360   -3.9560    2.4730 ho        1 MOL      0.409379
    193 O28        -1.3070   -4.6710    5.9820 oh        1 MOL     -0.833840
    194 H96        -2.2280   -4.9120    6.0120 ho        1 MOL      0.409379
    195 H97        -0.9640   -4.9230    6.8330 ho        1 MOL      0.409379
@<TRIPOS>BOND
     1    1    2 1   
     2    1    4 1   
     3    1    5 1   
     4    1    6 1   
     5    2    3 2   
     6    2    7 1   
     7    7    8 1   
     8    7   15 1   
     9    8    9 1   
    10    8   11 1   
    11    8   16 1   
    12    9   10 2   
    13    9   19 1   
    14   11   12 1   
    15   11   17 1   
    16   11   18 1   
    17   12   13 1   
    18   12   14 1   
    19   19   20 1   
    20   19   28 1   
    21   20   21 1   
    22   20   23 1   
    23   20   29 1   
    24   21   22 2   
    25   21   41 1   
    26   23   24 1   
    27   23   30 1   
    28   23   31 1   
    29   24   25 1   
    30   24   32 1   
    31   24   33 1   
    32   25   26 1   
    33   25   34 1   
    34   25   35 1   
    35   26   27 1   
    36   26   36 1   
    37   26   37 1   
    38   27   38 1   
    39   27   39 1   
    40   27   40 1   
    41   41   42 1   
    42   41   49 1   
    43   42   43 1   
    44   42   45 1   
    45   42   50 1   
    46   43   44 2   
    47   43   53 1   
    48   45   46 1   
    49   45   51 1   
    50   45   52 1   
    51   46   47 1   
    52   46   48 1   
    53   53   54 1   
    54   53   57 1   
    55   54   55 1   
    56   54   58 1   
    57   54   59 1   
    58   55   56 2   
    59   55   60 1   
    60   60   61 1   
    61   60   68 1   
    62   61   62 1   
    63   61   64 1   
    64   61   69 1   
    65   62   63 2   
    66   62   72 1   
    67   64   65 1   
    68   64   70 1   
    69   64   71 1   
    70   65   66 1   
    71   65   67 1   
    72   72   73 1   
    73   72   76 1   
    74   73   74 1   
    75   73   77 1   
    76   73   78 1   
    77   74   75 2   
    78   74   79 1   
    79   79   80 1   
    80   79   86 1   
    81   80   81 1   
    82   80   83 1   
    83   80   87 1   
    84   81   82 2   
    85   81   93 1   
    86   83   84 1   
    87   83   85 1   
    88   83   88 1   
    89   84   90 1   
    90   84   91 1   
    91   84   92 1   
    92   85   89 1   
    93   93   94 1   
    94   93  101 1   
    95   94   95 1   
    96   94   97 1   
    97   94  102 1   
    98   95   96 2   
    99   95  112 1   
   100   97   98 1   
   101   97   99 1   
   102   97  103 1   
   103   98  100 1   
   104   98  104 1   
   105   98  105 1   
   106   99  106 1   
   107   99  107 1   
   108   99  108 1   
   109  100  109 1   
   110  100  110 1   
   111  100  111 1   
   112  112  113 1   
   113  112  119 1   
   114  113  114 1   
   115  113  116 1   
   116  113  120 1   
   117  114  115 2   
   118  114  126 1   
   119  116  117 1   
   120  116  118 1   
   121  116  121 1   
   122  117  123 1   
   123  117  124 1   
   124  117  125 1   
   125  118  122 1   
   126  126  127 1   
   127  126  133 1   
   128  127  128 1   
   129  127  130 1   
   130  127  134 1   
   131  128  129 2   
   132  128  140 1   
   133  130  131 1   
   134  130  132 1   
   135  130  135 1   
   136  131  137 1   
   137  131  138 1   
   138  131  139 1   
   139  132  136 1   
   140  140  141 1   
   141  140  149 1   
   142  141  142 1   
   143  141  144 1   
   144  141  150 1   
   145  142  143 2   
   146  142  162 1   
   147  144  145 1   
   148  144  151 1   
   149  144  152 1   
   150  145  146 1   
   151  145  153 1   
   152  145  154 1   
   153  146  147 1   
   154  146  155 1   
   155  146  156 1   
   156  147  148 1   
   157  147  157 1   
   158  147  158 1   
   159  148  159 1   
   160  148  160 1   
   161  148  161 1   
   162  162  163 1   
   163  162  171 1   
   164  163  164 1   
   165  163  166 1   
   166  163  172 1   
   167  164  165 2   
   168  164  177 1   
   169  166  167 1   
   170  166  173 1   
   171  166  174 1   
   172  167  168 1   
   173  167  175 1   
   174  167  176 1   
   175  168  169 1   
   176  168  170 1   
   177  177  178 1   
   178  177  182 1   
   179  178  179 1   
   180  178  180 1   
   181  178  181 1   
   182  184  185 1   
   183  184  186 1   
   184  187  188 1   
   185  187  189 1   
   186  190  191 1   
   187  190  192 1   
   188  193  194 1   
   189  193  195 1   
@<TRIPOS>SUBSTRUCTURE
     1 MOL         1 TEMP              0 ****  ****    0 ROOT
