@<TRIPOS>MOLECULE
MOL
  178   175     1     0     0
SMALL
resp


@<TRIPOS>ATOM
      1 C1         -3.5280   -1.8500   -3.2270 c3        1 MOL     -0.431617
      2 C2         -4.9390   -1.2850   -2.9810 c         1 MOL      0.645922
      3 O1         -5.1570   -0.5540   -2.0050 o         1 MOL     -0.552368
      4 H1         -3.2880   -2.5750   -2.4490 hc        1 MOL      0.119426
      5 H2         -3.4960   -2.3370   -4.2010 hc        1 MOL      0.119426
      6 H3         -2.8020   -1.0370   -3.2030 hc        1 MOL      0.119426
      7 N1         -5.9810   -1.6370   -3.7020 n         1 MOL     -0.504683
      8 C3         -7.3390   -1.3270   -3.3450 c3        1 MOL      0.156217
      9 C4         -7.9560   -2.2160   -2.2350 c         1 MOL      0.492162
     10 O2         -7.9300   -3.4580   -2.2880 o         1 MOL     -0.529281
     11 C5         -8.1880   -1.3250   -4.6030 c3        1 MOL     -0.202990
     12 C6         -9.5290   -0.6460   -4.3570 c         1 MOL      0.746667
     13 O3        -10.5410   -1.3640   -4.0510 o         1 MOL     -0.737973
     14 O4         -9.6810    0.5420   -4.5920 o         1 MOL     -0.737973
     15 H4         -5.8600   -2.2750   -4.4690 hn        1 MOL      0.291328
     16 H5         -7.3460   -0.2780   -3.0500 h1        1 MOL      0.049224
     17 H6         -8.2730   -2.3470   -4.9540 hc        1 MOL      0.016429
     18 H7         -7.6330   -0.7810   -5.3710 hc        1 MOL      0.016429
     19 N2         -8.5810   -1.6310   -1.1730 n         1 MOL     -0.509448
     20 C7         -8.8710   -2.2740    0.1400 c3        1 MOL      0.350394
     21 C8         -7.6140   -2.4040    1.0060 c         1 MOL      0.311132
     22 O5         -7.6210   -3.0830    2.0300 o         1 MOL     -0.545993
     23 C9        -10.0820   -1.6090    0.7760 c3        1 MOL     -0.401832
     24 H8         -8.8490   -0.6630   -1.2120 hn        1 MOL      0.272039
     25 H9         -9.1440   -3.3070   -0.0930 h1        1 MOL      0.055068
     26 H10       -10.5970   -2.2690    1.4750 hc        1 MOL      0.104658
     27 H11        -9.7250   -0.7070    1.2680 hc        1 MOL      0.104658
     28 H12       -10.7870   -1.4090   -0.0290 hc        1 MOL      0.104658
     29 N3         -6.4810   -1.8480    0.5460 n         1 MOL     -0.218036
     30 C10        -5.1090   -1.8540    1.0590 c3        1 MOL      0.220521
     31 C11        -4.8850   -1.2890    2.5170 c         1 MOL      0.439739
     32 O6         -4.0090   -1.7150    3.2570 o         1 MOL     -0.488219
     33 C12        -4.5720   -3.2590    0.8850 c3        1 MOL     -0.033539
     34 C13        -3.0670   -3.4660    1.2530 c         1 MOL      0.601629
     35 O7         -2.7330   -4.4550    1.9480 o         1 MOL     -0.707902
     36 O8         -2.2020   -2.7020    0.7720 o         1 MOL     -0.707902
     37 H13        -6.5510   -1.3440   -0.3220 hn        1 MOL      0.093240
     38 H14        -4.6000   -1.0840    0.4820 h1        1 MOL      0.001351
     39 H15        -4.6640   -3.6210   -0.1440 hc        1 MOL      0.009930
     40 H16        -5.1740   -3.9120    1.5150 hc        1 MOL      0.009930
     41 N4         -5.8390   -0.4860    2.9600 n         1 MOL     -0.234121
     42 C14        -6.0200    0.1700    4.3240 c3        1 MOL     -0.260964
     43 C15        -5.1730    1.4470    4.5580 c         1 MOL      0.691853
     44 O9         -5.6200    2.3420    5.2710 o         1 MOL     -0.586366
     45 H17        -6.5140   -0.1660    2.2790 hn        1 MOL      0.214653
     46 H18        -5.7790   -0.5480    5.1040 h1        1 MOL      0.123463
     47 H19        -7.0840    0.3880    4.3730 h1        1 MOL      0.123463
     48 N5         -4.0680    1.6520    3.8350 n         1 MOL     -0.620603
     49 C16        -3.2610    2.8790    3.8710 c3        1 MOL      0.274038
     50 C17        -3.4510    3.7040    2.5810 c         1 MOL      0.590110
     51 O10        -3.9730    3.2100    1.6110 o         1 MOL     -0.487534
     52 C18        -1.8180    2.5370    4.0480 c3        1 MOL     -0.191751
     53 C19        -1.5370    1.5600    5.1910 c         1 MOL      0.692087
     54 N6         -1.0550    0.4410    4.8980 n         1 MOL     -0.791687
     55 O11        -1.5840    1.9980    6.3410 o         1 MOL     -0.618502
     56 H20        -3.7680    0.9210    3.1950 hn        1 MOL      0.277160
     57 H21        -3.5650    3.4970    4.7190 h1        1 MOL      0.004951
     58 H22        -1.2180    3.4360    4.1640 hc        1 MOL      0.061589
     59 H23        -1.4540    2.0360    3.1500 hc        1 MOL      0.061589
     60 H24        -1.1390    0.1990    3.9220 hn        1 MOL      0.387598
     61 H25        -0.7080   -0.1960    5.5910 hn        1 MOL      0.387598
     62 N7         -2.9990    5.0090    2.6560 n         1 MOL     -0.613238
     63 C20        -2.8000    5.8850    1.4820 c3        1 MOL     -0.002831
     64 C21        -1.3320    6.0760    1.2470 c         1 MOL      0.619556
     65 O12        -0.5020    5.7190    2.0000 o         1 MOL     -0.481631
     66 H26        -2.6980    5.4060    3.5400 hn        1 MOL      0.336922
     67 H27        -3.1430    6.8910    1.7500 h1        1 MOL      0.071378
     68 H28        -3.2130    5.5240    0.5460 h1        1 MOL      0.071378
     69 N8         -1.0470    6.7920    0.1510 n         1 MOL     -0.448532
     70 C22         0.3330    7.1390   -0.3990 c3        1 MOL     -0.267374
     71 C23         1.0340    6.0240   -1.0470 c         1 MOL      0.530501
     72 O13         2.2480    5.8470   -0.8780 o         1 MOL     -0.560285
     73 C24         0.3040    8.4030   -1.2230 c3        1 MOL      0.504577
     74 C25        -0.5200    8.2880   -2.4860 c3        1 MOL     -0.470620
     75 O14        -0.1680    9.5020   -0.4620 oh        1 MOL     -0.635810
     76 H29        -1.8760    7.2340   -0.2340 hn        1 MOL      0.210158
     77 H30         1.0020    7.3800    0.4320 h1        1 MOL      0.156467
     78 H31         1.3300    8.6320   -1.5060 h1        1 MOL      0.029284
     79 H32        -1.1270    9.4160   -0.4010 ho        1 MOL      0.385002
     80 H33        -1.4970    7.8580   -2.2930 hc        1 MOL      0.111801
     81 H34        -0.4770    9.2200   -3.0580 hc        1 MOL      0.111801
     82 H35         0.0170    7.5960   -3.1410 hc        1 MOL      0.111801
     83 N9          0.2700    5.1240   -1.6990 n         1 MOL     -0.222412
     84 C26         0.7820    3.9210   -2.2940 c3        1 MOL     -0.150917
     85 C27         0.9010    2.7830   -1.2460 c         1 MOL      0.786825
     86 O15         0.0670    2.6270   -0.4000 o         1 MOL     -0.561558
     87 C28         0.1110    3.6900   -3.6700 c3        1 MOL      0.172131
     88 C29         0.1840    4.7750   -4.7070 c3        1 MOL      0.037879
     89 C30         0.5310    2.3130   -4.2370 c3        1 MOL     -0.174221
     90 C31         1.6070    5.0660   -5.2100 c3        1 MOL     -0.438647
     91 H36        -0.7030    5.3620   -1.5770 hn        1 MOL      0.214653
     92 H37         1.7950    4.2400   -2.5440 h1        1 MOL      0.076771
     93 H38        -0.9560    3.6410   -3.4870 hc        1 MOL     -0.004546
     94 H39        -0.3470    5.6150   -4.2620 hc        1 MOL      0.006353
     95 H40        -0.3790    4.4030   -5.5600 hc        1 MOL      0.006353
     96 H41         0.2700    2.3090   -5.3010 hc        1 MOL      0.046700
     97 H42         1.6130    2.1740   -4.2060 hc        1 MOL      0.046700
     98 H43        -0.0730    1.5520   -3.7410 hc        1 MOL      0.046700
     99 H44         1.8720    4.3370   -5.9690 hc        1 MOL      0.111052
    100 H45         1.3810    5.9080   -5.8750 hc        1 MOL      0.111052
    101 H46         2.2750    5.3830   -4.4090 hc        1 MOL      0.111052
    102 N10         1.8960    1.9700   -1.3930 n         1 MOL     -0.858284
    103 C32         2.0870    0.7870   -0.5630 c3        1 MOL      0.652436
    104 C33         3.5740    0.4240   -0.2440 c         1 MOL      0.344863
    105 O16         3.7920   -0.6580    0.3080 o         1 MOL     -0.405951
    106 C34         1.3540   -0.3910   -1.1710 c3        1 MOL     -0.371231
    107 C35         1.2110   -1.5810   -0.2750 c         1 MOL      0.673025
    108 O17         0.9160   -1.3980    0.9350 o         1 MOL     -0.708298
    109 O18         1.1050   -2.7790   -0.7250 o         1 MOL     -0.708298
    110 H47         2.6280    2.1520   -2.0590 hn        1 MOL      0.343699
    111 H48         1.7560    0.9840    0.4520 h1        1 MOL     -0.036473
    112 H49         1.8240   -0.5990   -2.1260 hc        1 MOL      0.092575
    113 H50         0.4070    0.0700   -1.4570 hc        1 MOL      0.092575
    114 N11         4.5910    1.2100   -0.6170 n         1 MOL     -0.462038
    115 C36         5.8930    1.0370    0.0440 c3        1 MOL      0.191293
    116 C37         6.5870   -0.2710   -0.4840 c         1 MOL      0.243679
    117 O19         6.5860   -0.4670   -1.7110 o         1 MOL     -0.502515
    118 C38         6.9170    2.2160   -0.1830 c3        1 MOL     -0.072733
    119 C39         8.1900    2.1270    0.6450 ca        1 MOL      0.048852
    120 C40         8.2470    2.7510    1.8590 ca        1 MOL     -0.145443
    121 C41         9.2510    1.3740    0.2580 ca        1 MOL     -0.145443
    122 C42         9.3310    2.6230    2.6630 ca        1 MOL     -0.118514
    123 C43        10.3830    1.1440    1.0330 ca        1 MOL     -0.118514
    124 C44        10.3790    1.7900    2.3280 ca        1 MOL     -0.098466
    125 H51         4.4930    2.1280   -1.0390 hn        1 MOL      0.259067
    126 H52         5.7990    1.0500    1.1310 h1        1 MOL      0.024373
    127 H53         6.5160    3.1970    0.1060 hc        1 MOL      0.056584
    128 H54         7.2240    2.3920   -1.2090 hc        1 MOL      0.056584
    129 H55         7.4040    3.2790    2.2780 ha        1 MOL      0.116149
    130 H56         9.2770    0.8710   -0.6980 ha        1 MOL      0.116149
    131 H57         9.3400    3.1130    3.6240 ha        1 MOL      0.110569
    132 H58        11.2050    0.5000    0.7650 ha        1 MOL      0.110569
    133 H59        11.2140    1.7230    3.0220 ha        1 MOL      0.093085
    134 N12         7.3530   -1.0530    0.3090 n         1 MOL     -0.004405
    135 C45         8.3650   -2.0280   -0.1830 c3        1 MOL     -0.066169
    136 C46         7.8000   -3.3140   -0.7810 c         1 MOL      0.394169
    137 O20         8.5130   -4.2320   -1.2330 o         1 MOL     -0.518159
    138 C47         9.2380   -2.3510    1.0340 c3        1 MOL     -0.037521
    139 C48         8.2620   -2.2060    2.2100 c3        1 MOL     -0.001933
    140 C49         7.4370   -1.0240    1.7940 c3        1 MOL     -0.062996
    141 H60         8.8990   -1.5650   -1.0130 h1        1 MOL      0.096743
    142 H61         9.6560   -3.3600    1.0410 hc        1 MOL      0.035865
    143 H62        10.0950   -1.6870    1.0350 hc        1 MOL      0.035865
    144 H63         7.6010   -3.0720    2.2890 hc        1 MOL      0.024758
    145 H64         8.7640   -1.9940    3.1600 hc        1 MOL      0.024758
    146 H65         6.4430   -1.0320    2.2460 h1        1 MOL      0.052274
    147 H66         7.9550   -0.1270    2.1140 h1        1 MOL      0.052274
    148 N13         6.4680   -3.3560   -0.8070 n         1 MOL     -0.276253
    149 C50         5.6760   -4.2670   -1.6790 c3        1 MOL     -0.147259
    150 C51         5.4860   -3.8030   -3.1030 c         1 MOL      0.525837
    151 O21         5.2560   -4.6050   -3.9900 o         1 MOL     -0.558958
    152 C52         4.2240   -4.3450   -1.0930 c3        1 MOL      0.253007
    153 C53         4.1590   -5.1730    0.2190 c3        1 MOL     -0.114532
    154 C54         2.6900   -5.2530    0.7490 c         1 MOL      0.554439
    155 O22         2.3910   -4.6840    1.8460 o         1 MOL     -0.708393
    156 O23         1.8080   -5.8820    0.0600 o         1 MOL     -0.708393
    157 H67         5.9400   -2.6560   -0.2980 hn        1 MOL      0.262787
    158 H68         6.1010   -5.2530   -1.8690 h1        1 MOL      0.098116
    159 H69         3.6160   -4.8580   -1.8440 hc        1 MOL     -0.043309
    160 H70         3.8410   -3.3300   -1.0280 hc        1 MOL     -0.043309
    161 H71         4.7700   -4.6570    0.9540 hc        1 MOL      0.014527
    162 H72         4.4630   -6.2020   -0.0110 hc        1 MOL      0.014527
    163 N14         5.4790   -2.4900   -3.2740 n         1 MOL     -0.212800
    164 C55         5.2790   -1.8590   -4.5220 c3        1 MOL     -0.345790
    165 H73         4.3730   -2.2500   -4.9860 h1        1 MOL      0.116592
    166 H74         5.1750   -0.7840   -4.3740 h1        1 MOL      0.116592
    167 H75         6.1320   -2.0570   -5.1710 h1        1 MOL      0.116592
    168 H76         5.6110   -1.9250   -2.4580 hn        1 MOL      0.256082
    169 Ca1        -0.0730   -4.3130    1.0290 Ca        1 MOL      1.795934
    170 O24         0.0970   -3.3310    3.4130 oh        1 MOL     -0.872285
    171 H77         0.7850   -2.8700    3.8940 ho        1 MOL      0.419779
    172 H78        -0.5830   -3.4820    4.0700 ho        1 MOL      0.419779
    173 O25        -0.3130   -6.7770    2.2010 oh        1 MOL     -0.872285
    174 O26        -1.4760   -5.2850   -1.1060 oh        1 MOL     -0.872285
    175 H79         0.2970   -7.4350    1.8620 ho        1 MOL      0.419779
    176 H80        -1.2020   -5.3260   -2.0210 ho        1 MOL      0.419779
    177 H81        -0.5280   -7.0910    3.0830 ho        1 MOL      0.419779
    178 H82        -2.3660   -5.6350   -1.1100 ho        1 MOL      0.419779
@<TRIPOS>BOND
     1    1    2 1   
     2    1    4 1   
     3    1    5 1   
     4    1    6 1   
     5    2    3 2   
     6    2    7 1   
     7    7    8 1   
     8    7   15 1   
     9    8    9 1   
    10    8   11 1   
    11    8   16 1   
    12    9   10 2   
    13    9   19 1   
    14   11   12 1   
    15   11   17 1   
    16   11   18 1   
    17   12   13 1   
    18   12   14 1   
    19   19   20 1   
    20   19   24 1   
    21   20   21 1   
    22   20   23 1   
    23   20   25 1   
    24   21   22 2   
    25   21   29 1   
    26   23   26 1   
    27   23   27 1   
    28   23   28 1   
    29   29   30 1   
    30   29   37 1   
    31   30   31 1   
    32   30   33 1   
    33   30   38 1   
    34   31   32 2   
    35   31   41 1   
    36   33   34 1   
    37   33   39 1   
    38   33   40 1   
    39   34   35 1   
    40   34   36 1   
    41   41   42 1   
    42   41   45 1   
    43   42   43 1   
    44   42   46 1   
    45   42   47 1   
    46   43   44 2   
    47   43   48 1   
    48   48   49 1   
    49   48   56 1   
    50   49   50 1   
    51   49   52 1   
    52   49   57 1   
    53   50   51 2   
    54   50   62 1   
    55   52   53 1   
    56   52   58 1   
    57   52   59 1   
    58   53   54 1   
    59   53   55 2   
    60   54   60 1   
    61   54   61 1   
    62   62   63 1   
    63   62   66 1   
    64   63   64 1   
    65   63   67 1   
    66   63   68 1   
    67   64   65 2   
    68   64   69 1   
    69   69   70 1   
    70   69   76 1   
    71   70   71 1   
    72   70   73 1   
    73   70   77 1   
    74   71   72 2   
    75   71   83 1   
    76   73   74 1   
    77   73   75 1   
    78   73   78 1   
    79   74   80 1   
    80   74   81 1   
    81   74   82 1   
    82   75   79 1   
    83   83   84 1   
    84   83   91 1   
    85   84   85 1   
    86   84   87 1   
    87   84   92 1   
    88   85   86 2   
    89   85  102 1   
    90   87   88 1   
    91   87   89 1   
    92   87   93 1   
    93   88   90 1   
    94   88   94 1   
    95   88   95 1   
    96   89   96 1   
    97   89   97 1   
    98   89   98 1   
    99   90   99 1   
   100   90  100 1   
   101   90  101 1   
   102  102  103 1   
   103  102  110 1   
   104  103  104 1   
   105  103  106 1   
   106  103  111 1   
   107  104  105 2   
   108  104  114 1   
   109  106  107 1   
   110  106  112 1   
   111  106  113 1   
   112  107  108 1   
   113  107  109 1   
   114  114  115 1   
   115  114  125 1   
   116  115  116 1   
   117  115  118 1   
   118  115  126 1   
   119  116  117 2   
   120  116  134 1   
   121  118  119 1   
   122  118  127 1   
   123  118  128 1   
   124  119  120 ar  
   125  119  121 ar  
   126  120  122 ar  
   127  120  129 1   
   128  121  123 ar  
   129  121  130 1   
   130  122  124 ar  
   131  122  131 1   
   132  123  124 ar  
   133  123  132 1   
   134  124  133 1   
   135  134  135 1   
   136  134  140 1   
   137  135  136 1   
   138  135  138 1   
   139  135  141 1   
   140  136  137 2   
   141  136  148 1   
   142  138  139 1   
   143  138  142 1   
   144  138  143 1   
   145  139  140 1   
   146  139  144 1   
   147  139  145 1   
   148  140  146 1   
   149  140  147 1   
   150  148  149 1   
   151  148  157 1   
   152  149  150 1   
   153  149  152 1   
   154  149  158 1   
   155  150  151 2   
   156  150  163 1   
   157  152  153 1   
   158  152  159 1   
   159  152  160 1   
   160  153  154 1   
   161  153  161 1   
   162  153  162 1   
   163  154  155 1   
   164  154  156 1   
   165  163  164 1   
   166  163  168 1   
   167  164  165 1   
   168  164  166 1   
   169  164  167 1   
   170  170  171 1   
   171  170  172 1   
   172  173  175 1   
   173  173  177 1   
   174  174  176 1   
   175  174  178 1   
@<TRIPOS>SUBSTRUCTURE
     1 MOL         1 TEMP              0 ****  ****    0 ROOT
