@<TRIPOS>MOLECULE
MOL
  195   189     1     0     0
SMALL
resp


@<TRIPOS>ATOM
      1 C1          0.1800   -3.7740    3.1950 c3        1 MOL     -0.240193
      2 C2          0.9440   -3.8630    1.8400 c         1 MOL      0.871423
      3 O1          1.3870   -2.8590    1.3390 o         1 MOL     -0.520597
      4 H1         -0.6770   -4.4480    3.1730 hc        1 MOL      0.028876
      5 H2          0.8460   -4.0630    4.0080 hc        1 MOL      0.028876
      6 H3         -0.1660   -2.7520    3.3520 hc        1 MOL      0.028876
      7 N1          1.1150   -5.0470    1.1910 n         1 MOL     -0.890941
      8 C3          1.8210   -5.2650   -0.1440 c3        1 MOL      0.060621
      9 C4          3.2320   -4.9110   -0.1040 c         1 MOL      0.720531
     10 O2          3.8130   -4.4850   -1.1070 o         1 MOL     -0.517610
     11 C5          0.8730   -4.7150   -1.2610 c3        1 MOL     -0.467391
     12 C6         -0.6040   -5.0650   -1.0090 c         1 MOL      0.942780
     13 O3         -0.9440   -6.3040   -0.8080 o         1 MOL     -0.798964
     14 O4         -1.4820   -4.2290   -1.1660 o         1 MOL     -0.798964
     15 H4          0.9010   -5.8970    1.6980 hn        1 MOL      0.358259
     16 H5          1.9100   -6.3380   -0.3260 h1        1 MOL      0.103427
     17 H6          1.2040   -5.0420   -2.2520 hc        1 MOL      0.164252
     18 H7          1.0100   -3.6490   -1.1250 hc        1 MOL      0.164252
     19 N2          3.8510   -4.9680    1.0960 n         1 MOL     -0.611979
     20 C7          5.2740   -4.5420    1.2810 c3        1 MOL     -0.184116
     21 C8          6.1450   -5.2090    0.2240 c         1 MOL      0.267641
     22 O5          5.8340   -6.3240   -0.2370 o         1 MOL     -0.525317
     23 C9          5.8370   -4.6990    2.6510 c3        1 MOL      0.055214
     24 C10         5.8440   -6.2300    3.0600 c3        1 MOL      0.187561
     25 C11         5.0250   -3.7580    3.6290 c3        1 MOL     -0.043226
     26 C12         6.6090   -6.5050    4.3670 c3        1 MOL     -0.165651
     27 H8          3.3420   -5.3220    1.8970 hn        1 MOL      0.355625
     28 H9          5.3370   -3.4880    1.0190 h1        1 MOL      0.193213
     29 H10         6.8520   -4.3140    2.5970 hc        1 MOL      0.055127
     30 H11         6.2780   -6.8920    2.3190 hc        1 MOL     -0.014876
     31 H12         4.8230   -6.5690    3.1930 hc        1 MOL     -0.014876
     32 H13         4.9760   -2.7230    3.3080 hc        1 MOL      0.001878
     33 H14         4.0140   -4.1620    3.6570 hc        1 MOL      0.001878
     34 H15         5.4580   -3.7830    4.6260 hc        1 MOL      0.001878
     35 H16         5.9210   -6.1370    5.1270 hc        1 MOL      0.017186
     36 H17         6.7090   -7.5780    4.5020 hc        1 MOL      0.017186
     37 H18         7.6080   -6.0480    4.3430 hc        1 MOL      0.017186
     38 N3          7.1990   -4.5940   -0.2200 n         1 MOL     -0.087399
     39 C13         7.7420   -3.2680    0.0290 c3        1 MOL     -0.127770
     40 C14         6.8520   -2.2150   -0.5790 c         1 MOL      0.605495
     41 O6          6.7400   -1.1520    0.0160 o         1 MOL     -0.594036
     42 C15         9.1770   -3.1220   -0.5690 c3        1 MOL     -0.244102
     43 C16         9.2260   -3.5200   -2.0580 c         1 MOL      0.719435
     44 O7          9.1990   -2.6280   -2.9210 o         1 MOL     -0.714730
     45 O8          9.2980   -4.7170   -2.3680 o         1 MOL     -0.714730
     46 H19         7.7290   -5.0950   -0.9180 hn        1 MOL      0.167351
     47 H20         7.7880   -3.0990    1.1110 h1        1 MOL      0.040337
     48 H21         9.8200   -3.9220   -0.2070 hc        1 MOL      0.054299
     49 H22         9.5770   -2.1180   -0.4480 hc        1 MOL      0.054299
     50 N4          6.1960   -2.5860   -1.6610 n         1 MOL     -0.147876
     51 C17         5.1810   -1.6410   -2.2260 c3        1 MOL     -0.417995
     52 C18         5.7270   -0.2210   -2.5140 c         1 MOL      0.656783
     53 O9          6.9340   -0.0190   -2.7230 o         1 MOL     -0.529442
     54 H23         6.2780   -3.5190   -2.0360 hn        1 MOL      0.292563
     55 H24         4.3330   -1.5940   -1.5430 h1        1 MOL      0.133686
     56 H25         4.9020   -2.0440   -3.1940 h1        1 MOL      0.133686
     57 N5          5.0090    0.8790   -2.3440 n         1 MOL     -0.408148
     58 C19         5.2980    2.1470   -2.9030 c3        1 MOL      0.009703
     59 C20         5.8450    3.1910   -1.9400 c         1 MOL      0.454729
     60 O10         6.1780    4.2670   -2.4240 o         1 MOL     -0.554361
     61 C21         4.0270    2.7010   -3.5440 c3        1 MOL     -0.114418
     62 C22         2.7800    2.6630   -2.6520 c         1 MOL      0.641790
     63 O11         1.7830    2.0110   -3.0800 o         1 MOL     -0.664906
     64 O12         2.8740    3.0780   -1.4600 o         1 MOL     -0.664906
     65 H26         4.1000    0.6940   -1.9440 hn        1 MOL      0.289310
     66 H27         6.0910    1.9790   -3.6420 h1        1 MOL      0.093710
     67 H28         3.7520    2.0100   -4.3330 hc        1 MOL      0.012425
     68 H29         4.1760    3.7030   -3.9660 hc        1 MOL      0.012425
     69 N6          5.8730    2.9220   -0.6500 n         1 MOL     -0.292954
     70 C23         6.2030    3.7140    0.5910 c3        1 MOL     -0.161999
     71 C24         5.2460    4.8980    0.9180 c         1 MOL      0.333223
     72 O13         5.5160    5.5590    1.9800 o         1 MOL     -0.605961
     73 H30         5.5930    1.9980   -0.3410 hn        1 MOL      0.243272
     74 H31         7.2430    4.0130    0.7460 h1        1 MOL      0.125745
     75 H32         6.0900    2.9890    1.3860 h1        1 MOL      0.125745
     76 N7          4.2190    5.1240    0.1690 n         1 MOL      0.211004
     77 C25         3.2100    6.1680    0.0880 c3        1 MOL     -0.005453
     78 C26         2.4800    6.3630    1.4410 c         1 MOL      0.551196
     79 O14         2.1420    7.4840    1.8120 o         1 MOL     -0.545311
     80 C27         3.6840    7.3910   -0.6630 c3        1 MOL      0.062611
     81 C28         4.6000    7.1960   -1.8430 c3        1 MOL     -0.150753
     82 C29         4.8320    8.4710   -2.6270 c         1 MOL      0.659317
     83 N8          6.0360    8.8690   -2.9010 n         1 MOL     -0.767305
     84 O15         3.9420    9.1820   -2.9860 o         1 MOL     -0.583206
     85 H33         4.0050    4.3230   -0.4140 hn        1 MOL      0.011408
     86 H34         2.3520    5.7520   -0.4360 h1        1 MOL      0.079488
     87 H35         4.3130    7.9680    0.0130 hc        1 MOL     -0.011485
     88 H36         2.8590    8.0230   -0.9840 hc        1 MOL     -0.011485
     89 H37         4.1810    6.3880   -2.4390 hc        1 MOL      0.039458
     90 H38         5.5340    6.6770   -1.6310 hc        1 MOL      0.039458
     91 H39         6.8150    8.2860   -2.6190 hn        1 MOL      0.344293
     92 H40         6.0990    9.8380   -3.1880 hn        1 MOL      0.344293
     93 N9          2.3250    5.2190    2.1620 n         1 MOL     -0.505119
     94 C30         1.7330    5.1980    3.5040 c3        1 MOL      0.116934
     95 C31         0.4420    4.2900    3.5970 c         1 MOL      0.552145
     96 O16        -0.4350    4.5700    4.4450 o         1 MOL     -0.559197
     97 C32         2.7540    4.8770    4.5900 c3        1 MOL      0.356469
     98 C33         3.4920    3.5140    4.4650 c3        1 MOL     -0.399433
     99 C34         3.7620    6.0090    4.8490 c3        1 MOL     -0.399433
    100 H41         2.5360    4.3600    1.6700 hn        1 MOL      0.192923
    101 H42         1.2950    6.1580    3.7680 h1        1 MOL      0.054371
    102 H43         2.0670    4.7810    5.4280 hc        1 MOL     -0.095562
    103 H44         4.3180    3.5800    3.7450 hc        1 MOL      0.093008
    104 H45         3.9130    3.1960    5.4110 hc        1 MOL      0.093008
    105 H46         2.7820    2.7920    4.0450 hc        1 MOL      0.093008
    106 H47         4.4590    5.6630    5.6100 hc        1 MOL      0.093008
    107 H48         4.2780    6.1410    3.9000 hc        1 MOL      0.093008
    108 H49         3.2100    6.8730    5.2160 hc        1 MOL      0.093008
    109 N10         0.3880    3.1740    2.7840 n         1 MOL     -0.586175
    110 C35        -0.7090    2.1600    2.7270 c3        1 MOL      0.380432
    111 C36        -1.2900    2.0520    1.2960 c         1 MOL      0.449789
    112 O17        -0.7880    2.7250    0.3800 o         1 MOL     -0.504780
    113 C37        -0.2040    0.8600    3.4400 c3        1 MOL     -0.174124
    114 C38        -1.3610   -0.0230    3.7900 c         1 MOL      0.612514
    115 N11        -1.1040   -0.7720    4.7900 n         1 MOL     -0.731343
    116 O18        -2.4410   -0.0760    3.1950 o         1 MOL     -0.520981
    117 H50         1.1610    2.9570    2.1770 hn        1 MOL      0.342458
    118 H51        -1.5350    2.4740    3.3750 h1        1 MOL      0.017937
    119 H52         0.4110    1.0230    4.3250 hc        1 MOL      0.039473
    120 H53         0.4100    0.3090    2.7180 hc        1 MOL      0.039473
    121 H54        -0.2880   -0.6220    5.3690 hn        1 MOL      0.344948
    122 H55        -1.8070   -1.4130    5.1230 hn        1 MOL      0.344948
    123 N12        -2.5620    1.5330    1.1670 n         1 MOL     -0.486211
    124 C39        -3.4740    1.9550    0.0930 c3        1 MOL      0.113147
    125 C40        -4.9380    1.9880    0.6300 c         1 MOL      0.694961
    126 O19        -5.2250    1.4250    1.6310 o         1 MOL     -0.548775
    127 C41        -3.3400    1.1050   -1.0880 c3        1 MOL     -0.137380
    128 C42        -3.8050    1.7480   -2.3630 ca        1 MOL     -0.039956
    129 C43        -5.0750    1.5170   -2.9350 ca        1 MOL     -0.111184
    130 C44        -2.9810    2.7390   -2.9570 ca        1 MOL     -0.111184
    131 C45        -5.5030    2.3200   -3.9570 ca        1 MOL     -0.288853
    132 C46        -3.3840    3.5560   -4.0240 ca        1 MOL     -0.288853
    133 C47        -4.6760    3.3120   -4.4870 ca        1 MOL      0.357199
    134 O20        -5.1050    3.9630   -5.6690 oh        1 MOL     -0.514558
    135 H56        -2.9880    1.0570    1.9570 hn        1 MOL      0.225352
    136 H57        -3.2600    2.9660   -0.2570 h1        1 MOL      0.085584
    137 H58        -3.9500    0.2340   -0.8670 hc        1 MOL      0.079355
    138 H59        -2.3030    0.7820   -1.2230 hc        1 MOL      0.079355
    139 H60        -5.7330    0.7560   -2.5410 ha        1 MOL      0.155192
    140 H61        -2.0130    2.8670   -2.5050 ha        1 MOL      0.155192
    141 H62        -6.5190    2.3200   -4.3150 ha        1 MOL      0.177164
    142 H63        -2.6840    4.2750   -4.4150 ha        1 MOL      0.177164
    143 H64        -5.8770    3.4670   -5.9850 ho        1 MOL      0.329220
    144 N13        -5.9040    2.6390   -0.0370 n         1 MOL     -0.816921
    145 C48        -7.3740    2.3310    0.1700 c3        1 MOL      0.386161
    146 C49        -7.8970    1.4650   -0.9980 c         1 MOL      0.295732
    147 O21        -8.2130    2.0200   -2.0720 o         1 MOL     -0.552212
    148 C50        -8.2090    3.6270    0.2730 c3        1 MOL      0.283502
    149 C51        -9.6990    3.3130    0.4510 c3        1 MOL     -0.407432
    150 C52       -10.4200    4.6060    0.8730 c         1 MOL      0.732131
    151 O22       -11.3020    5.1630    0.1760 o         1 MOL     -0.718271
    152 O23       -10.1040    5.0990    1.9810 o         1 MOL     -0.718271
    153 H65        -5.7240    3.1310   -0.9010 hn        1 MOL      0.355191
    154 H66        -7.5330    1.6780    1.0250 h1        1 MOL      0.052399
    155 H67        -8.0640    4.2960   -0.5860 hc        1 MOL     -0.055969
    156 H68        -7.9000    4.1390    1.1850 hc        1 MOL     -0.055969
    157 H69        -9.7150    2.6190    1.2900 hc        1 MOL      0.083866
    158 H70       -10.1750    2.8200   -0.3970 hc        1 MOL      0.083866
    159 N14        -8.0220    0.1490   -0.9780 n         1 MOL     -0.235125
    160 C53        -7.2790   -0.6930   -0.0420 c3        1 MOL     -0.637622
    161 C54        -7.7880   -0.7130    1.4600 c         1 MOL      0.627612
    162 O24        -8.9510   -0.3590    1.6970 o         1 MOL     -0.512377
    163 C55        -7.4300   -2.2110   -0.4400 c3        1 MOL      0.582299
    164 C56        -6.5290   -2.5070   -1.6190 c3        1 MOL     -0.377410
    165 C57        -6.3930   -3.9330   -1.8520 c         1 MOL      0.718745
    166 O25        -7.2620   -4.5600   -2.4430 o         1 MOL     -0.725108
    167 O26        -5.3390   -4.4530   -1.3840 o         1 MOL     -0.725108
    168 H71        -8.2580   -0.2760   -1.8540 hn        1 MOL      0.281059
    169 H72        -6.2270   -0.4290   -0.0020 h1        1 MOL      0.239837
    170 H73        -8.4520   -2.5210   -0.6760 hc        1 MOL     -0.092474
    171 H74        -7.1430   -2.7880    0.4300 hc        1 MOL     -0.092474
    172 H75        -5.5360   -2.0930   -1.4080 hc        1 MOL      0.066911
    173 H76        -6.9240   -2.0910   -2.5540 hc        1 MOL      0.066911
    174 N15        -6.9890   -1.2440    2.4310 n         1 MOL     -0.321773
    175 C58        -7.3020   -1.2300    3.9050 c3        1 MOL     -0.745677
    176 H77        -8.2100   -1.8060    4.0890 h1        1 MOL      0.250132
    177 H78        -6.4730   -1.6740    4.4570 h1        1 MOL      0.250132
    178 H79        -7.4510   -0.2030    4.2360 h1        1 MOL      0.250132
    179 H80        -6.0860   -1.6010    2.1780 hn        1 MOL      0.288657
    180 Ca1        -3.5270   -5.9990   -0.7380 Ca        1 MOL      1.730536
    181 O27        -3.4000   -8.6400   -0.8440 oh        1 MOL     -0.852477
    182 H81        -3.7200   -8.8580   -1.7160 ho        1 MOL      0.412727
    183 H82        -3.8060   -9.2910   -0.2690 ho        1 MOL      0.412727
    184 O28        -3.3010   -4.3890    1.3690 oh        1 MOL     -0.852477
    185 H83        -3.1930   -4.6140    2.2990 ho        1 MOL      0.412727
    186 H84        -3.3410   -3.4320    1.3590 ho        1 MOL      0.412727
    187 O29        -2.7980   -5.4000   -3.2680 oh        1 MOL     -0.852477
    188 H85        -2.1240   -4.7340   -3.1470 ho        1 MOL      0.412727
    189 H86        -3.3670   -5.0470   -3.9540 ho        1 MOL      0.412727
    190 O30        -5.5920   -7.0140   -2.5000 oh        1 MOL     -0.852477
    191 H87        -5.6050   -6.7480   -3.4200 ho        1 MOL      0.412727
    192 H88        -6.2470   -6.4550   -2.0770 ho        1 MOL      0.412727
    193 O31        -5.6590   -6.9280    0.5130 oh        1 MOL     -0.852477
    194 H89        -5.8020   -7.3250    1.3680 ho        1 MOL      0.412727
    195 H90        -6.5230   -6.6160    0.2450 ho        1 MOL      0.412727
@<TRIPOS>BOND
     1    1    2 1   
     2    1    4 1   
     3    1    5 1   
     4    1    6 1   
     5    2    3 2   
     6    2    7 1   
     7    7    8 1   
     8    7   15 1   
     9    8    9 1   
    10    8   11 1   
    11    8   16 1   
    12    9   10 2   
    13    9   19 1   
    14   11   12 1   
    15   11   17 1   
    16   11   18 1   
    17   12   13 1   
    18   12   14 1   
    19   19   20 1   
    20   19   27 1   
    21   20   21 1   
    22   20   23 1   
    23   20   28 1   
    24   21   22 2   
    25   21   38 1   
    26   23   24 1   
    27   23   25 1   
    28   23   29 1   
    29   24   26 1   
    30   24   30 1   
    31   24   31 1   
    32   25   32 1   
    33   25   33 1   
    34   25   34 1   
    35   26   35 1   
    36   26   36 1   
    37   26   37 1   
    38   38   39 1   
    39   38   46 1   
    40   39   40 1   
    41   39   42 1   
    42   39   47 1   
    43   40   41 2   
    44   40   50 1   
    45   42   43 1   
    46   42   48 1   
    47   42   49 1   
    48   43   44 1   
    49   43   45 1   
    50   50   51 1   
    51   50   54 1   
    52   51   52 1   
    53   51   55 1   
    54   51   56 1   
    55   52   53 2   
    56   52   57 1   
    57   57   58 1   
    58   57   65 1   
    59   58   59 1   
    60   58   61 1   
    61   58   66 1   
    62   59   60 2   
    63   59   69 1   
    64   61   62 1   
    65   61   67 1   
    66   61   68 1   
    67   62   63 1   
    68   62   64 1   
    69   69   70 1   
    70   69   73 1   
    71   70   71 1   
    72   70   74 1   
    73   70   75 1   
    74   71   72 2   
    75   71   76 1   
    76   76   77 1   
    77   76   85 1   
    78   77   78 1   
    79   77   80 1   
    80   77   86 1   
    81   78   79 2   
    82   78   93 1   
    83   80   81 1   
    84   80   87 1   
    85   80   88 1   
    86   81   82 1   
    87   81   89 1   
    88   81   90 1   
    89   82   83 1   
    90   82   84 2   
    91   83   91 1   
    92   83   92 1   
    93   93   94 1   
    94   93  100 1   
    95   94   95 1   
    96   94   97 1   
    97   94  101 1   
    98   95   96 2   
    99   95  109 1   
   100   97   98 1   
   101   97   99 1   
   102   97  102 1   
   103   98  103 1   
   104   98  104 1   
   105   98  105 1   
   106   99  106 1   
   107   99  107 1   
   108   99  108 1   
   109  109  110 1   
   110  109  117 1   
   111  110  111 1   
   112  110  113 1   
   113  110  118 1   
   114  111  112 2   
   115  111  123 1   
   116  113  114 1   
   117  113  119 1   
   118  113  120 1   
   119  114  115 1   
   120  114  116 2   
   121  115  121 1   
   122  115  122 1   
   123  123  124 1   
   124  123  135 1   
   125  124  125 1   
   126  124  127 1   
   127  124  136 1   
   128  125  126 2   
   129  125  144 1   
   130  127  128 1   
   131  127  137 1   
   132  127  138 1   
   133  128  129 ar  
   134  128  130 ar  
   135  129  131 ar  
   136  129  139 1   
   137  130  132 ar  
   138  130  140 1   
   139  131  133 ar  
   140  131  141 1   
   141  132  133 ar  
   142  132  142 1   
   143  133  134 1   
   144  134  143 1   
   145  144  145 1   
   146  144  153 1   
   147  145  146 1   
   148  145  148 1   
   149  145  154 1   
   150  146  147 2   
   151  146  159 1   
   152  148  149 1   
   153  148  155 1   
   154  148  156 1   
   155  149  150 1   
   156  149  157 1   
   157  149  158 1   
   158  150  151 1   
   159  150  152 1   
   160  159  160 1   
   161  159  168 1   
   162  160  161 1   
   163  160  163 1   
   164  160  169 1   
   165  161  162 2   
   166  161  174 1   
   167  163  164 1   
   168  163  170 1   
   169  163  171 1   
   170  164  165 1   
   171  164  172 1   
   172  164  173 1   
   173  165  166 1   
   174  165  167 1   
   175  174  175 1   
   176  174  179 1   
   177  175  176 1   
   178  175  177 1   
   179  175  178 1   
   180  181  182 1   
   181  181  183 1   
   182  184  185 1   
   183  184  186 1   
   184  187  188 1   
   185  187  189 1   
   186  190  191 1   
   187  190  192 1   
   188  193  194 1   
   189  193  195 1   
@<TRIPOS>SUBSTRUCTURE
     1 MOL         1 TEMP              0 ****  ****    0 ROOT
