@<TRIPOS>MOLECULE
MOL
  186   183     1     0     0
SMALL
resp


@<TRIPOS>ATOM
      1 C1          9.1060   -0.8420    2.5540 c3        1 MOL     -0.553745
      2 C2          8.0520   -0.5550    1.4090 c         1 MOL      0.798953
      3 O1          6.8370   -0.6320    1.7030 o         1 MOL     -0.671479
      4 H1          9.0080   -0.0880    3.3350 hc        1 MOL      0.138339
      5 H2          8.9230   -1.8290    2.9780 hc        1 MOL      0.138339
      6 H3         10.1140   -0.8060    2.1390 hc        1 MOL      0.138339
      7 N1          8.4640   -0.2800    0.2060 n         1 MOL     -0.620212
      8 C3          7.5770   -0.0030   -0.9350 c3        1 MOL      0.111982
      9 C4          6.9690   -1.3310   -1.5390 c         1 MOL      0.674599
     10 O2          6.8250   -1.4850   -2.7520 o         1 MOL     -0.520769
     11 C5          8.4080    0.7160   -1.9930 c3        1 MOL     -0.375376
     12 C6          9.1890    1.9550   -1.4260 c         1 MOL      0.799433
     13 O3          8.5110    2.9880   -1.1600 o         1 MOL     -0.678136
     14 O4         10.4150    1.8580   -1.3120 o         1 MOL     -0.678136
     15 H4          9.4600   -0.2650    0.0490 hn        1 MOL      0.333366
     16 H5          6.7730    0.6880   -0.6720 h1        1 MOL      0.090860
     17 H6          7.7360    1.1430   -2.7310 hc        1 MOL      0.091612
     18 H7          9.0670   -0.0570   -2.3740 hc        1 MOL      0.091612
     19 N2          6.7330   -2.3510   -0.6780 n         1 MOL     -0.554289
     20 C7          6.1650   -3.7030   -1.0570 c3        1 MOL      0.205574
     21 C8          4.7880   -3.6520   -1.7670 c         1 MOL      0.426516
     22 O5          4.6070   -4.4640   -2.6890 o         1 MOL     -0.584659
     23 C9          6.1410   -4.5200    0.1870 c3        1 MOL     -0.295593
     24 C10         7.6070   -5.0320    0.5660 c3        1 MOL      0.118496
     25 C11         7.5910   -5.9070    1.8530 c3        1 MOL     -0.095146
     26 C12         9.0060   -6.4160    2.2950 c3        1 MOL      0.067705
     27 N3          9.0330   -7.2430    3.5160 n4        1 MOL     -0.229301
     28 H8          6.6750   -2.1000    0.2920 hn        1 MOL      0.243617
     29 H9          6.7790   -4.1980   -1.8050 h1        1 MOL      0.057290
     30 H10         5.5070   -5.4140    0.1320 hc        1 MOL      0.091669
     31 H11         5.7290   -3.7840    0.8690 hc        1 MOL      0.091669
     32 H12         8.1520   -4.0930    0.7110 hc        1 MOL     -0.000706
     33 H13         8.1930   -5.5250   -0.2110 hc        1 MOL     -0.000706
     34 H14         6.9060   -6.7440    1.6980 hc        1 MOL      0.048505
     35 H15         7.1390   -5.3820    2.6970 hc        1 MOL      0.048505
     36 H16         9.6750   -5.5550    2.3970 hx        1 MOL      0.057913
     37 H17         9.4540   -6.9490    1.4540 hx        1 MOL      0.057913
     38 H18         9.1440   -6.7000    4.3600 hn        1 MOL      0.248569
     39 H19         8.2980   -7.9180    3.6470 hn        1 MOL      0.248569
     40 H20         9.8820   -7.7850    3.4440 hn        1 MOL      0.248569
     41 N4          3.8440   -2.8360   -1.4840 n         1 MOL     -0.252028
     42 C13         3.7680   -1.9490   -0.3340 c3        1 MOL     -0.031302
     43 C14         3.6070   -0.4390   -0.7570 c         1 MOL      0.325606
     44 O6          3.2950   -0.1310   -1.8820 o         1 MOL     -0.455802
     45 C15         2.6710   -2.3120    0.6330 c3        1 MOL     -0.310068
     46 C16         1.2350   -2.3810    0.0540 c         1 MOL      0.857764
     47 O7          0.8980   -1.5530   -0.8100 o         1 MOL     -0.755480
     48 O8          0.4100   -3.2280    0.4120 o         1 MOL     -0.755480
     49 H21         3.1710   -2.7700   -2.2350 hn        1 MOL      0.325420
     50 H22         4.6400   -1.9910    0.3090 h1        1 MOL      0.136353
     51 H23         2.6800   -1.5870    1.4500 hc        1 MOL      0.058304
     52 H24         2.9790   -3.2320    1.1410 hc        1 MOL      0.058304
     53 N5          3.9970    0.4170    0.1470 n         1 MOL     -0.241648
     54 C17         4.2120    1.8240   -0.1880 c3        1 MOL     -0.209147
     55 C18         2.9510    2.6160   -0.3520 c         1 MOL      0.760010
     56 O9          1.8580    2.1190   -0.0980 o         1 MOL     -0.768466
     57 H25         4.1800    0.2040    1.1120 hn        1 MOL      0.281585
     58 H26         4.9070    1.8800   -1.0270 h1        1 MOL      0.127470
     59 H27         4.6930    2.2150    0.7020 h1        1 MOL      0.127470
     60 N6          3.1230    3.8840   -0.6710 n         1 MOL     -0.597066
     61 C19         2.0520    4.7690   -1.1100 c3        1 MOL      0.502170
     62 C20         2.3750    6.2480   -0.7480 c         1 MOL      0.363670
     63 O10         3.5700    6.5740   -0.7390 o         1 MOL     -0.499066
     64 C21         1.7070    4.7190   -2.6090 c3        1 MOL     -0.357273
     65 C22         1.6310    3.2920   -3.2200 c         1 MOL      0.669830
     66 O11         2.3670    2.9530   -4.2000 o         1 MOL     -0.584211
     67 O12         0.7340    2.5470   -2.8410 o         1 MOL     -0.584211
     68 H28         4.0470    4.2440   -0.8840 hn        1 MOL      0.316548
     69 H29         1.1490    4.4250   -0.5950 h1        1 MOL     -0.090643
     70 H30         2.4600    5.3370   -3.0960 hc        1 MOL      0.084071
     71 H31         0.7340    5.1640   -2.8150 hc        1 MOL      0.084071
     72 N7          1.3980    7.1630   -0.5510 n         1 MOL     -0.439162
     73 C23        -0.0370    6.9020   -0.6020 c3        1 MOL      0.017243
     74 C24        -0.5910    6.0260    0.5800 c         1 MOL      0.567336
     75 O13         0.1060    5.9050    1.5830 o         1 MOL     -0.497045
     76 H32         1.7180    8.0890   -0.3000 hn        1 MOL      0.317827
     77 H33        -0.1700    6.3770   -1.5470 h1        1 MOL      0.054752
     78 H34        -0.6120    7.8230   -0.6960 h1        1 MOL      0.054752
     79 N8         -1.7920    5.4490    0.4730 n         1 MOL     -0.690144
     80 C25        -2.4220    4.6720    1.5130 c3        1 MOL      0.364730
     81 C26        -1.6890    3.2970    1.6140 c         1 MOL      0.941448
     82 O14        -1.2420    2.7130    0.5880 o         1 MOL     -0.710406
     83 C27        -3.9390    4.4880    1.4640 c3        1 MOL      0.491474
     84 C28        -4.4330    3.4250    0.4770 c3        1 MOL     -0.383477
     85 O15        -4.7170    5.6480    1.5720 oh        1 MOL     -0.675415
     86 H35        -2.2580    5.5830   -0.4180 hn        1 MOL      0.333941
     87 H36        -2.2220    5.0960    2.4970 h1        1 MOL     -0.054232
     88 H37        -3.9750    4.0800    2.4730 h1        1 MOL     -0.138833
     89 H38        -5.5970    5.3440    1.8300 ho        1 MOL      0.409583
     90 H39        -5.5120    3.2990    0.5520 hc        1 MOL      0.080634
     91 H40        -4.0990    3.7550   -0.5050 hc        1 MOL      0.080634
     92 H41        -3.9640    2.5050    0.8290 hc        1 MOL      0.080634
     93 N9         -1.5860    2.7710    2.8260 n         1 MOL     -0.747640
     94 C29        -0.7320    1.6640    3.1520 c3        1 MOL      0.133037
     95 C30        -1.1140    0.3920    2.3750 c         1 MOL      0.504557
     96 O16        -0.5110    0.1360    1.2930 o         1 MOL     -0.511031
     97 C31         0.7810    1.9010    3.1520 c3        1 MOL      0.036543
     98 C32         1.0890    3.2710    3.7580 c3        1 MOL      0.195146
     99 C33         1.3410    0.7080    3.9100 c3        1 MOL     -0.633875
    100 C34         2.6380    3.5880    3.8840 c3        1 MOL     -0.141892
    101 H42        -2.1590    3.1490    3.5670 hn        1 MOL      0.334041
    102 H43        -1.0270    1.4790    4.1930 h1        1 MOL      0.048074
    103 H44         1.0570    1.8890    2.1010 hc        1 MOL      0.128511
    104 H45         0.6420    3.2720    4.7510 hc        1 MOL     -0.054840
    105 H46         0.6020    4.1120    3.2780 hc        1 MOL     -0.054840
    106 H47         1.0470   -0.2490    3.4650 hc        1 MOL      0.164405
    107 H48         2.4150    0.5190    3.8440 hc        1 MOL      0.164405
    108 H49         1.0570    0.5810    4.9590 hc        1 MOL      0.164405
    109 H50         3.1920    2.8410    4.4450 hc        1 MOL      0.032598
    110 H51         3.0150    3.5480    2.8570 hc        1 MOL      0.032598
    111 H52         2.9440    4.5470    4.2910 hc        1 MOL      0.032598
    112 N10        -2.0730   -0.3960    2.8950 n         1 MOL     -0.506788
    113 C35        -2.5670   -1.6490    2.1730 c3        1 MOL     -0.394834
    114 C36        -4.0550   -1.6860    2.0240 c         1 MOL      0.567388
    115 O17        -4.5730   -2.7040    1.5960 o         1 MOL     -0.609785
    116 C37        -2.1950   -2.9110    2.9420 c3        1 MOL      0.582389
    117 C38        -2.4900   -2.9300    4.4270 c3        1 MOL     -0.601370
    118 O18        -0.8340   -3.0380    2.8510 oh        1 MOL     -0.641264
    119 H53        -2.5490   -0.2230    3.7770 hn        1 MOL      0.320268
    120 H54        -2.0940   -1.6940    1.1930 h1        1 MOL      0.373475
    121 H55        -2.5420   -3.7670    2.3580 h1        1 MOL     -0.028080
    122 H56        -0.5230   -2.9450    1.9560 ho        1 MOL      0.364198
    123 H57        -3.3950   -2.4020    4.7200 hc        1 MOL      0.152768
    124 H58        -2.4290   -4.0080    4.5910 hc        1 MOL      0.152768
    125 H59        -1.6500   -2.4720    4.9470 hc        1 MOL      0.152768
    126 N11        -4.8180   -0.6920    2.3560 n         1 MOL     -0.164898
    127 C39        -6.2590   -0.6600    2.1110 c3        1 MOL     -0.369318
    128 C40        -6.5040   -0.7800    0.6220 c         1 MOL      0.534538
    129 O19        -6.2730    0.1630   -0.1430 o         1 MOL     -0.466810
    130 C41        -6.9430    0.5770    2.7330 c3        1 MOL      0.429876
    131 C42        -8.4460    0.5530    2.6560 c3        1 MOL     -0.496548
    132 O20        -6.5330    0.7230    4.0780 oh        1 MOL     -0.630093
    133 H60        -4.3340    0.0560    2.8390 hn        1 MOL      0.198877
    134 H61        -6.7600   -1.5190    2.5440 h1        1 MOL      0.124602
    135 H62        -6.6280    1.4250    2.1310 h1        1 MOL      0.071304
    136 H63        -6.7440   -0.1000    4.5120 ho        1 MOL      0.400299
    137 H64        -8.7370    0.9900    1.7020 hc        1 MOL      0.133817
    138 H65        -8.8510   -0.4620    2.7600 hc        1 MOL      0.133817
    139 H66        -8.9360    1.1960    3.3930 hc        1 MOL      0.133817
    140 N12        -7.1200   -1.9190    0.1250 n         1 MOL     -0.317258
    141 C43        -7.2870   -2.3410   -1.2550 c3        1 MOL      0.228145
    142 C44        -6.1100   -1.7620   -2.0880 c         1 MOL      0.545781
    143 O21        -6.3240   -0.8790   -2.9000 o         1 MOL     -0.516202
    144 C45        -8.6960   -2.0120   -1.8430 c3        1 MOL     -0.421248
    145 C46        -9.8100   -2.5730   -0.9160 c3        1 MOL      0.088788
    146 C47       -11.2260   -2.6660   -1.5030 c3        1 MOL      0.002536
    147 C48       -12.2710   -3.0990   -0.4090 c3        1 MOL     -0.025719
    148 N13       -13.5940   -3.5420   -1.0440 n4        1 MOL     -0.138598
    149 H67        -7.4140   -2.5260    0.8790 hn        1 MOL      0.203114
    150 H68        -7.1510   -3.4230   -1.2770 h1        1 MOL      0.042278
    151 H69        -8.8560   -2.5430   -2.7770 hc        1 MOL      0.144540
    152 H70        -8.9380   -0.9510   -1.8870 hc        1 MOL      0.144540
    153 H71        -9.8190   -1.9120   -0.0450 hc        1 MOL     -0.022286
    154 H72        -9.5150   -3.5680   -0.5840 hc        1 MOL     -0.022286
    155 H73       -11.2240   -3.2960   -2.3930 hc        1 MOL      0.038379
    156 H74       -11.6120   -1.7200   -1.8640 hc        1 MOL      0.038379
    157 H75       -12.5100   -2.2360    0.2120 hx        1 MOL      0.078618
    158 H76       -11.9530   -3.8570    0.3110 hx        1 MOL      0.078618
    159 H77       -14.3640   -3.5050   -0.3910 hn        1 MOL      0.197031
    160 H78       -13.7300   -3.0980   -1.9380 hn        1 MOL      0.197031
    161 H79       -13.5450   -4.5190   -1.3230 hn        1 MOL      0.197031
    162 N14        -4.9370   -2.3320   -1.8910 n         1 MOL     -0.832300
    163 C49        -3.6720   -1.8120   -2.4090 c3        1 MOL      0.620682
    164 C50        -2.5380   -2.0640   -1.4630 c         1 MOL      0.232439
    165 O22        -1.9800   -1.0830   -1.0480 o         1 MOL     -0.579823
    166 C51        -3.4510   -2.1670   -3.8520 c3        1 MOL     -0.103829
    167 C52        -2.2080   -1.7630   -4.5680 c3        1 MOL     -0.239311
    168 C53        -1.7250   -0.3660   -4.2430 c         1 MOL      0.893393
    169 O23        -0.6170   -0.2300   -3.6610 o         1 MOL     -0.748052
    170 O24        -2.4730    0.5690   -4.3350 o         1 MOL     -0.748052
    171 H80        -4.8820   -2.9360   -1.0830 hn        1 MOL      0.336804
    172 H81        -3.7530   -0.7240   -2.4530 h1        1 MOL     -0.017823
    173 H82        -4.2580   -1.6970   -4.4130 hc        1 MOL      0.038839
    174 H83        -3.5860   -3.2370   -4.0300 hc        1 MOL      0.038839
    175 H84        -2.2700   -1.8370   -5.6590 hc        1 MOL      0.042700
    176 H85        -1.4960   -2.5350   -4.2600 hc        1 MOL      0.042700
    177 N15        -2.1910   -3.3110   -1.0750 n         1 MOL     -0.185139
    178 C54        -2.6770   -4.6080   -1.5710 c3        1 MOL     -0.161040
    179 H86        -3.0770   -4.4850   -2.5780 h1        1 MOL      0.070281
    180 H87        -1.8540   -5.3210   -1.5920 h1        1 MOL      0.070281
    181 H88        -3.4630   -4.9790   -0.9120 h1        1 MOL      0.070281
    182 H89        -1.5150   -3.3190   -0.3220 hn        1 MOL      0.311295
    183 Ca1        -0.1720    0.8500   -1.2140 Ca        1 MOL      1.822840
    184 O25        -2.6530    1.7590   -2.0270 oh        1 MOL     -1.064463
    185 H90        -2.8630    1.4190   -2.8970 ho        1 MOL      0.489988
    186 H91        -3.5040    1.9950   -1.6560 ho        1 MOL      0.489988
@<TRIPOS>BOND
     1    1    2 1   
     2    1    4 1   
     3    1    5 1   
     4    1    6 1   
     5    2    3 2   
     6    2    7 1   
     7    7    8 1   
     8    7   15 1   
     9    8    9 1   
    10    8   11 1   
    11    8   16 1   
    12    9   10 2   
    13    9   19 1   
    14   11   12 1   
    15   11   17 1   
    16   11   18 1   
    17   12   13 1   
    18   12   14 1   
    19   19   20 1   
    20   19   28 1   
    21   20   21 1   
    22   20   23 1   
    23   20   29 1   
    24   21   22 2   
    25   21   41 1   
    26   23   24 1   
    27   23   30 1   
    28   23   31 1   
    29   24   25 1   
    30   24   32 1   
    31   24   33 1   
    32   25   26 1   
    33   25   34 1   
    34   25   35 1   
    35   26   27 1   
    36   26   36 1   
    37   26   37 1   
    38   27   38 1   
    39   27   39 1   
    40   27   40 1   
    41   41   42 1   
    42   41   49 1   
    43   42   43 1   
    44   42   45 1   
    45   42   50 1   
    46   43   44 2   
    47   43   53 1   
    48   45   46 1   
    49   45   51 1   
    50   45   52 1   
    51   46   47 1   
    52   46   48 1   
    53   53   54 1   
    54   53   57 1   
    55   54   55 1   
    56   54   58 1   
    57   54   59 1   
    58   55   56 2   
    59   55   60 1   
    60   60   61 1   
    61   60   68 1   
    62   61   62 1   
    63   61   64 1   
    64   61   69 1   
    65   62   63 2   
    66   62   72 1   
    67   64   65 1   
    68   64   70 1   
    69   64   71 1   
    70   65   66 1   
    71   65   67 1   
    72   72   73 1   
    73   72   76 1   
    74   73   74 1   
    75   73   77 1   
    76   73   78 1   
    77   74   75 2   
    78   74   79 1   
    79   79   80 1   
    80   79   86 1   
    81   80   81 1   
    82   80   83 1   
    83   80   87 1   
    84   81   82 2   
    85   81   93 1   
    86   83   84 1   
    87   83   85 1   
    88   83   88 1   
    89   84   90 1   
    90   84   91 1   
    91   84   92 1   
    92   85   89 1   
    93   93   94 1   
    94   93  101 1   
    95   94   95 1   
    96   94   97 1   
    97   94  102 1   
    98   95   96 2   
    99   95  112 1   
   100   97   98 1   
   101   97   99 1   
   102   97  103 1   
   103   98  100 1   
   104   98  104 1   
   105   98  105 1   
   106   99  106 1   
   107   99  107 1   
   108   99  108 1   
   109  100  109 1   
   110  100  110 1   
   111  100  111 1   
   112  112  113 1   
   113  112  119 1   
   114  113  114 1   
   115  113  116 1   
   116  113  120 1   
   117  114  115 2   
   118  114  126 1   
   119  116  117 1   
   120  116  118 1   
   121  116  121 1   
   122  117  123 1   
   123  117  124 1   
   124  117  125 1   
   125  118  122 1   
   126  126  127 1   
   127  126  133 1   
   128  127  128 1   
   129  127  130 1   
   130  127  134 1   
   131  128  129 2   
   132  128  140 1   
   133  130  131 1   
   134  130  132 1   
   135  130  135 1   
   136  131  137 1   
   137  131  138 1   
   138  131  139 1   
   139  132  136 1   
   140  140  141 1   
   141  140  149 1   
   142  141  142 1   
   143  141  144 1   
   144  141  150 1   
   145  142  143 2   
   146  142  162 1   
   147  144  145 1   
   148  144  151 1   
   149  144  152 1   
   150  145  146 1   
   151  145  153 1   
   152  145  154 1   
   153  146  147 1   
   154  146  155 1   
   155  146  156 1   
   156  147  148 1   
   157  147  157 1   
   158  147  158 1   
   159  148  159 1   
   160  148  160 1   
   161  148  161 1   
   162  162  163 1   
   163  162  171 1   
   164  163  164 1   
   165  163  166 1   
   166  163  172 1   
   167  164  165 2   
   168  164  177 1   
   169  166  167 1   
   170  166  173 1   
   171  166  174 1   
   172  167  168 1   
   173  167  175 1   
   174  167  176 1   
   175  168  169 1   
   176  168  170 1   
   177  177  178 1   
   178  177  182 1   
   179  178  179 1   
   180  178  180 1   
   181  178  181 1   
   182  184  185 1   
   183  184  186 1   
@<TRIPOS>SUBSTRUCTURE
     1 MOL         1 TEMP              0 ****  ****    0 ROOT
