@<TRIPOS>MOLECULE
MOL
  178   175     1     0     0
SMALL
resp


@<TRIPOS>ATOM
      1 C1          1.4650   -1.7040    5.6390 c3        1 MOL     -0.242256
      2 C2          2.4840   -1.0780    4.6520 c         1 MOL      0.623373
      3 O1          2.2920   -0.0250    4.0520 o         1 MOL     -0.560698
      4 H1          0.7610   -2.3270    5.0880 hc        1 MOL      0.058491
      5 H2          1.9950   -2.3150    6.3700 hc        1 MOL      0.058491
      6 H3          0.9220   -0.9110    6.1540 hc        1 MOL      0.058491
      7 N1          3.6800   -1.6610    4.5040 n         1 MOL     -0.521088
      8 C3          4.7380   -1.0840    3.6970 c3        1 MOL      0.370827
      9 C4          4.9540   -1.8070    2.3640 c         1 MOL      0.410877
     10 O2          5.8630   -1.5010    1.6500 o         1 MOL     -0.473940
     11 C5          5.9340   -0.9530    4.6330 c3        1 MOL     -0.174144
     12 C6          7.0680   -0.0140    4.1540 c         1 MOL      0.642426
     13 O3          6.8260    1.0880    3.5620 o         1 MOL     -0.664120
     14 O4          8.3090   -0.1310    4.5140 o         1 MOL     -0.664120
     15 H4          3.8620   -2.5060    5.0110 hn        1 MOL      0.264198
     16 H5          4.5520   -0.0490    3.4220 h1        1 MOL      0.011650
     17 H6          6.3640   -1.9250    4.8760 hc        1 MOL     -0.003684
     18 H7          5.5650   -0.6420    5.6110 hc        1 MOL     -0.003684
     19 N2          4.2150   -2.9230    2.1870 n         1 MOL     -0.334307
     20 C7          4.5200   -3.9450    1.2010 c3        1 MOL     -0.023528
     21 C8          4.4260   -3.3070   -0.2320 c         1 MOL      0.669011
     22 O5          3.3670   -2.8830   -0.6640 o         1 MOL     -0.694321
     23 C9          5.7450   -4.7300    1.6960 c3        1 MOL     -0.474435
     24 H8          3.4400   -3.0960    2.8180 hn        1 MOL      0.225280
     25 H9          3.6400   -4.5920    1.2050 h1        1 MOL      0.155106
     26 H10         5.8190   -5.6090    1.0650 hc        1 MOL      0.136050
     27 H11         6.5970   -4.0550    1.5950 hc        1 MOL      0.136050
     28 H12         5.6900   -5.0380    2.7440 hc        1 MOL      0.136050
     29 N3          5.5670   -3.1390   -0.9280 n         1 MOL     -0.435910
     30 C10         5.5980   -2.5350   -2.2970 c3        1 MOL     -0.046172
     31 C11         6.0620   -1.0590   -2.1920 c         1 MOL      0.544951
     32 O6          6.2090   -0.3840   -3.2550 o         1 MOL     -0.554847
     33 C12         6.5190   -3.4030   -3.1230 c3        1 MOL     -0.083334
     34 C13         7.9660   -3.5090   -2.5140 c         1 MOL      0.702847
     35 O7          8.1400   -4.4030   -1.6570 o         1 MOL     -0.693698
     36 O8          8.9040   -2.8720   -3.0610 o         1 MOL     -0.693698
     37 H13         6.4760   -3.4600   -0.6430 hn        1 MOL      0.214514
     38 H14         4.6110   -2.5850   -2.7640 h1        1 MOL      0.075750
     39 H15         6.5630   -2.9100   -4.0950 hc        1 MOL     -0.021194
     40 H16         6.0120   -4.3570   -3.2700 hc        1 MOL     -0.021194
     41 N4          6.1030   -0.4270   -0.9720 n         1 MOL     -0.334738
     42 C14         6.4340    0.9730   -0.6620 c3        1 MOL      0.060124
     43 C15         5.6110    2.0720   -1.3170 c         1 MOL      0.604794
     44 O9          6.2120    2.9660   -1.9230 o         1 MOL     -0.584211
     45 H17         5.8920   -0.9750   -0.1510 hn        1 MOL      0.296517
     46 H18         7.4840    1.2450   -0.7980 h1        1 MOL      0.028183
     47 H19         6.2680    1.0540    0.4120 h1        1 MOL      0.028183
     48 N5          4.2950    1.8700   -1.3840 n         1 MOL     -0.265959
     49 C16         3.2510    2.6880   -1.9800 c3        1 MOL     -0.356155
     50 C17         2.9740    4.0420   -1.3080 c         1 MOL      0.603197
     51 O10         2.7330    4.0380   -0.0940 o         1 MOL     -0.492703
     52 C18         1.9830    1.7580   -2.0080 c3        1 MOL     -0.140097
     53 C19         2.1700    0.5020   -2.8540 c         1 MOL      0.568490
     54 N6          2.3750    0.7330   -4.1340 n         1 MOL     -0.697921
     55 O11         2.2050   -0.6180   -2.4040 o         1 MOL     -0.517990
     56 H20         3.9380    0.9780   -1.0580 hn        1 MOL      0.241711
     57 H21         3.4650    2.8270   -3.0440 h1        1 MOL      0.109975
     58 H22         1.1620    2.2660   -2.5250 hc        1 MOL      0.120592
     59 H23         1.5520    1.5000   -1.0440 hc        1 MOL      0.120592
     60 H24         2.4110    1.7060   -4.3770 hn        1 MOL      0.334049
     61 H25         2.5350    0.0570   -4.8660 hn        1 MOL      0.334049
     62 N7          3.0770    5.1090   -2.1140 n         1 MOL     -0.252156
     63 C20         2.6880    6.5380   -1.8210 c3        1 MOL     -0.505277
     64 C21         1.1960    6.6930   -1.5550 c         1 MOL      0.688897
     65 O12         0.4000    6.1620   -2.2730 o         1 MOL     -0.516382
     66 H26         3.2390    4.8030   -3.0680 hn        1 MOL      0.257815
     67 H27         2.8790    7.1370   -2.7100 h1        1 MOL      0.202912
     68 H28         3.1860    6.8140   -0.8830 h1        1 MOL      0.202912
     69 N8          0.7770    7.5310   -0.5860 n         1 MOL     -0.382779
     70 C22        -0.6770    7.9540   -0.3560 c3        1 MOL     -0.453196
     71 C23        -1.6180    6.8050   -0.0580 c         1 MOL      0.645121
     72 O13        -2.8250    6.9950   -0.0030 o         1 MOL     -0.580039
     73 C24        -0.6480    9.0010    0.6840 c3        1 MOL      0.538160
     74 C25        -0.3710    8.5100    2.0910 c3        1 MOL     -0.201803
     75 O14         0.3050   10.0600    0.3680 oh        1 MOL     -0.659391
     76 H29         1.5390    8.0710   -0.2030 hn        1 MOL      0.226072
     77 H30        -1.1450    8.4260   -1.2250 h1        1 MOL      0.185570
     78 H31        -1.5800    9.5690    0.7670 h1        1 MOL      0.025243
     79 H32         1.1730    9.6740    0.2300 ho        1 MOL      0.390179
     80 H33        -1.2580    8.0220    2.5000 hc        1 MOL      0.037307
     81 H34         0.3850    7.7320    2.0240 hc        1 MOL      0.037307
     82 H35         0.0690    9.3400    2.6380 hc        1 MOL      0.037307
     83 N9         -1.0830    5.5730    0.1690 n         1 MOL     -0.250801
     84 C26        -2.0270    4.4720    0.6170 c3        1 MOL     -0.019106
     85 C27        -1.8600    3.2740   -0.2360 c         1 MOL      0.491651
     86 O15        -0.9780    3.2640   -1.0580 o         1 MOL     -0.455599
     87 C28        -1.7980    4.0590    2.0680 c3        1 MOL      0.073881
     88 C29        -0.3370    3.7350    2.3650 c3        1 MOL      0.195384
     89 C30        -2.2670    5.1030    3.0400 c3        1 MOL     -0.359271
     90 C31        -0.1500    2.7880    3.5960 c3        1 MOL      0.013028
     91 H36        -0.1040    5.3810    0.2600 hn        1 MOL      0.168009
     92 H37        -3.0840    4.7200    0.4360 h1        1 MOL      0.087269
     93 H38        -2.3870    3.1930    2.3790 hc        1 MOL      0.018459
     94 H39         0.2150    4.6670    2.5360 hc        1 MOL     -0.006455
     95 H40         0.1680    3.3640    1.4720 hc        1 MOL     -0.006455
     96 H41        -3.3490    5.2540    2.9290 hc        1 MOL      0.074769
     97 H42        -2.0270    4.9160    4.0880 hc        1 MOL      0.074769
     98 H43        -1.7740    6.0430    2.8380 hc        1 MOL      0.074769
     99 H44        -0.3170    3.3830    4.4890 hc        1 MOL     -0.010551
    100 H45        -0.9040    2.0150    3.7080 hc        1 MOL     -0.010551
    101 H46         0.8980    2.4860    3.5850 hc        1 MOL     -0.010551
    102 N10        -2.6570    2.2160   -0.0790 n         1 MOL     -0.522273
    103 C32        -2.4490    0.9010   -0.6070 c3        1 MOL     -0.043967
    104 C33        -3.7230    0.0520   -0.7520 c         1 MOL      0.605527
    105 O16        -3.7300   -1.0220   -1.3110 o         1 MOL     -0.535196
    106 C34        -1.3310    0.1650    0.2270 c3        1 MOL     -0.068095
    107 C35        -0.4260   -0.7750   -0.5660 c         1 MOL      0.631217
    108 O17         0.6320   -1.1730   -0.0080 o         1 MOL     -0.727455
    109 O18        -0.6700   -1.1510   -1.7560 o         1 MOL     -0.727455
    110 H47        -3.3790    2.2860    0.6150 hn        1 MOL      0.248133
    111 H48        -2.0490    1.0320   -1.6150 h1        1 MOL      0.104779
    112 H49        -1.8110   -0.4840    0.9590 hc        1 MOL      0.038385
    113 H50        -0.7580    0.8150    0.8910 hc        1 MOL      0.038385
    114 N11        -4.8450    0.6720   -0.3660 n         1 MOL     -0.478809
    115 C36        -6.1870    0.1350   -0.5820 c3        1 MOL      0.291044
    116 C37        -6.3920   -1.1320    0.2500 c         1 MOL      0.212332
    117 O19        -6.2450   -1.1220    1.5030 o         1 MOL     -0.508132
    118 C38        -7.3260    1.1500   -0.3020 c3        1 MOL     -0.295300
    119 C39        -8.6500    0.7030   -1.0140 ca        1 MOL      0.116176
    120 C40        -8.7010    0.7650   -2.4250 ca        1 MOL     -0.159878
    121 C41        -9.6890    0.1520   -0.2640 ca        1 MOL     -0.159878
    122 C42        -9.8770    0.3360   -3.1180 ca        1 MOL     -0.172056
    123 C43       -10.7720   -0.4550   -0.9530 ca        1 MOL     -0.172056
    124 C44       -10.8800   -0.3360   -2.3660 ca        1 MOL     -0.076587
    125 H51        -4.7420    1.6380   -0.0630 hn        1 MOL      0.265873
    126 H52        -6.2490   -0.1380   -1.6290 h1        1 MOL      0.000818
    127 H53        -7.0010    2.1070   -0.6980 hc        1 MOL      0.105186
    128 H54        -7.5980    1.2260    0.7560 hc        1 MOL      0.105186
    129 H55        -7.7820    1.0320   -2.9280 ha        1 MOL      0.129214
    130 H56        -9.7380    0.3130    0.8020 ha        1 MOL      0.129214
    131 H57       -10.0020    0.1970   -4.1780 ha        1 MOL      0.121486
    132 H58       -11.4880   -1.0190   -0.3770 ha        1 MOL      0.121486
    133 H59       -11.7510   -0.7010   -2.8890 ha        1 MOL      0.092821
    134 N12        -6.6920   -2.2850   -0.3340 n         1 MOL      0.041244
    135 C45        -7.1140   -3.5120    0.3520 c3        1 MOL      0.042181
    136 C46        -6.1140   -4.0410    1.3960 c         1 MOL      0.359065
    137 O20        -6.5860   -4.5850    2.3800 o         1 MOL     -0.506380
    138 C47        -7.3720   -4.5310   -0.7940 c3        1 MOL     -0.088839
    139 C48        -7.7540   -3.6630   -1.9570 c3        1 MOL      0.038973
    140 C49        -6.8950   -2.4250   -1.7730 c3        1 MOL     -0.116483
    141 H60        -8.1010   -3.3240    0.7760 h1        1 MOL      0.066031
    142 H61        -6.4780   -5.0940   -1.0560 hc        1 MOL      0.028065
    143 H62        -8.2170   -5.1710   -0.5410 hc        1 MOL      0.028065
    144 H63        -7.7910   -4.0120   -2.9830 hc        1 MOL      0.016491
    145 H64        -8.8190   -3.4350   -1.8710 hc        1 MOL      0.016491
    146 H65        -5.9480   -2.5920   -2.2710 h1        1 MOL      0.058558
    147 H66        -7.4530   -1.5870   -2.1750 h1        1 MOL      0.058558
    148 N13        -4.7940   -3.8240    1.1840 n         1 MOL     -0.143948
    149 C50        -3.6910   -4.2260    2.1180 c3        1 MOL     -0.258635
    150 C51        -3.7730   -3.2940    3.3860 c         1 MOL      0.484176
    151 O21        -3.4180   -3.6930    4.5230 o         1 MOL     -0.541267
    152 C52        -2.3800   -4.0560    1.4640 c3        1 MOL      0.089218
    153 C53        -2.1420   -5.0160    0.2870 c3        1 MOL     -0.088403
    154 C54        -0.8600   -4.7080   -0.4010 c         1 MOL      0.706491
    155 O22         0.2120   -4.6210    0.2850 o         1 MOL     -0.762772
    156 O23        -0.8860   -4.5220   -1.6530 o         1 MOL     -0.762772
    157 H67        -4.5020   -3.3300    0.3630 hn        1 MOL      0.236035
    158 H68        -3.7820   -5.2890    2.3590 h1        1 MOL      0.138445
    159 H69        -1.6380   -4.1760    2.2600 hc        1 MOL      0.043808
    160 H70        -2.3090   -3.0360    1.0960 hc        1 MOL      0.043808
    161 H71        -2.9930   -5.0140   -0.4070 hc        1 MOL     -0.004222
    162 H72        -2.1860   -6.0450    0.6500 hc        1 MOL     -0.004222
    163 N14        -4.1900   -2.0070    3.1930 n         1 MOL     -0.156885
    164 C55        -4.3390   -1.0480    4.2910 c3        1 MOL     -0.321063
    165 H73        -3.3540   -0.7230    4.6250 h1        1 MOL      0.120128
    166 H74        -4.9080   -0.1850    3.9460 h1        1 MOL      0.120128
    167 H75        -4.8640   -1.5240    5.1200 h1        1 MOL      0.120128
    168 H76        -4.4940   -1.6420    2.2990 hn        1 MOL      0.202637
    169 Ca1         1.1020   -2.9240   -2.0030 Ca        1 MOL      1.790617
    170 O24         2.3740   -5.2620   -1.9020 oh        1 MOL     -0.814726
    171 H77         3.0460   -5.5850   -1.3080 ho        1 MOL      0.400571
    172 H78         2.6960   -5.4900   -2.7760 ho        1 MOL      0.400571
    173 O25         2.6150   -2.7890   -4.3600 oh        1 MOL     -0.814726
    174 H79         2.7860   -3.5330   -4.9420 ho        1 MOL      0.400571
    175 H80         3.1240   -2.0680   -4.7310 ho        1 MOL      0.400571
    176 O26        -0.2640   -3.0540   -4.2760 oh        1 MOL     -0.814726
    177 H81        -0.6780   -2.4540   -4.8940 ho        1 MOL      0.400571
    178 H82        -0.1580   -3.8710   -4.7580 ho        1 MOL      0.400571
@<TRIPOS>BOND
     1    1    2 1   
     2    1    4 1   
     3    1    5 1   
     4    1    6 1   
     5    2    3 2   
     6    2    7 1   
     7    7    8 1   
     8    7   15 1   
     9    8    9 1   
    10    8   11 1   
    11    8   16 1   
    12    9   10 2   
    13    9   19 1   
    14   11   12 1   
    15   11   17 1   
    16   11   18 1   
    17   12   13 1   
    18   12   14 1   
    19   19   20 1   
    20   19   24 1   
    21   20   21 1   
    22   20   23 1   
    23   20   25 1   
    24   21   22 2   
    25   21   29 1   
    26   23   26 1   
    27   23   27 1   
    28   23   28 1   
    29   29   30 1   
    30   29   37 1   
    31   30   31 1   
    32   30   33 1   
    33   30   38 1   
    34   31   32 2   
    35   31   41 1   
    36   33   34 1   
    37   33   39 1   
    38   33   40 1   
    39   34   35 1   
    40   34   36 1   
    41   41   42 1   
    42   41   45 1   
    43   42   43 1   
    44   42   46 1   
    45   42   47 1   
    46   43   44 2   
    47   43   48 1   
    48   48   49 1   
    49   48   56 1   
    50   49   50 1   
    51   49   52 1   
    52   49   57 1   
    53   50   51 2   
    54   50   62 1   
    55   52   53 1   
    56   52   58 1   
    57   52   59 1   
    58   53   54 1   
    59   53   55 2   
    60   54   60 1   
    61   54   61 1   
    62   62   63 1   
    63   62   66 1   
    64   63   64 1   
    65   63   67 1   
    66   63   68 1   
    67   64   65 2   
    68   64   69 1   
    69   69   70 1   
    70   69   76 1   
    71   70   71 1   
    72   70   73 1   
    73   70   77 1   
    74   71   72 2   
    75   71   83 1   
    76   73   74 1   
    77   73   75 1   
    78   73   78 1   
    79   74   80 1   
    80   74   81 1   
    81   74   82 1   
    82   75   79 1   
    83   83   84 1   
    84   83   91 1   
    85   84   85 1   
    86   84   87 1   
    87   84   92 1   
    88   85   86 2   
    89   85  102 1   
    90   87   88 1   
    91   87   89 1   
    92   87   93 1   
    93   88   90 1   
    94   88   94 1   
    95   88   95 1   
    96   89   96 1   
    97   89   97 1   
    98   89   98 1   
    99   90   99 1   
   100   90  100 1   
   101   90  101 1   
   102  102  103 1   
   103  102  110 1   
   104  103  104 1   
   105  103  106 1   
   106  103  111 1   
   107  104  105 2   
   108  104  114 1   
   109  106  107 1   
   110  106  112 1   
   111  106  113 1   
   112  107  108 1   
   113  107  109 1   
   114  114  115 1   
   115  114  125 1   
   116  115  116 1   
   117  115  118 1   
   118  115  126 1   
   119  116  117 2   
   120  116  134 1   
   121  118  119 1   
   122  118  127 1   
   123  118  128 1   
   124  119  120 ar  
   125  119  121 ar  
   126  120  122 ar  
   127  120  129 1   
   128  121  123 ar  
   129  121  130 1   
   130  122  124 ar  
   131  122  131 1   
   132  123  124 ar  
   133  123  132 1   
   134  124  133 1   
   135  134  135 1   
   136  134  140 1   
   137  135  136 1   
   138  135  138 1   
   139  135  141 1   
   140  136  137 2   
   141  136  148 1   
   142  138  139 1   
   143  138  142 1   
   144  138  143 1   
   145  139  140 1   
   146  139  144 1   
   147  139  145 1   
   148  140  146 1   
   149  140  147 1   
   150  148  149 1   
   151  148  157 1   
   152  149  150 1   
   153  149  152 1   
   154  149  158 1   
   155  150  151 2   
   156  150  163 1   
   157  152  153 1   
   158  152  159 1   
   159  152  160 1   
   160  153  154 1   
   161  153  161 1   
   162  153  162 1   
   163  154  155 1   
   164  154  156 1   
   165  163  164 1   
   166  163  168 1   
   167  164  165 1   
   168  164  166 1   
   169  164  167 1   
   170  170  171 1   
   171  170  172 1   
   172  173  174 1   
   173  173  175 1   
   174  176  177 1   
   175  176  178 1   
@<TRIPOS>SUBSTRUCTURE
     1 MOL         1 TEMP              0 ****  ****    0 ROOT
