@<TRIPOS>MOLECULE
MOL
  181   177     1     0     0
SMALL
resp


@<TRIPOS>ATOM
      1 C1          7.9230    7.2070   -0.9150 c3        1 MOL     -0.400204
      2 C2          8.1330    6.2370    0.2990 c         1 MOL      0.755382
      3 O1          8.0640    6.7080    1.4390 o         1 MOL     -0.602865
      4 H1          6.8620    7.2610   -1.1580 hc        1 MOL      0.108931
      5 H2          8.2850    8.2010   -0.6520 hc        1 MOL      0.108931
      6 H3          8.4750    6.8360   -1.7780 hc        1 MOL      0.108931
      7 N1          8.5320    4.9860    0.0960 n         1 MOL     -0.600333
      8 C3          8.6340    4.2330   -1.2140 c3        1 MOL      0.025964
      9 C4          9.6470    3.1000   -1.2530 c         1 MOL      0.541393
     10 O2          9.8870    2.5400   -2.3240 o         1 MOL     -0.537313
     11 C5          7.2070    3.7280   -1.5420 c3        1 MOL     -0.333201
     12 C6          6.6120    2.8170   -0.4880 c         1 MOL      0.702089
     13 O3          5.5860    3.1500    0.1900 o         1 MOL     -0.661991
     14 O4          7.1580    1.6730   -0.2790 o         1 MOL     -0.661991
     15 H4          8.7020    4.4160    0.9160 hn        1 MOL      0.251964
     16 H5          9.0420    4.9240   -1.9550 h1        1 MOL      0.119014
     17 H6          7.1560    3.2510   -2.5220 hc        1 MOL      0.114743
     18 H7          6.5330    4.5890   -1.5150 hc        1 MOL      0.114743
     19 N2         10.2880    2.8000   -0.1230 n         1 MOL     -0.451991
     20 C7         11.3780    1.8080    0.0120 c3        1 MOL      0.116076
     21 C8         10.9790    0.3440   -0.2580 c         1 MOL      0.516402
     22 O5         11.8420   -0.4520   -0.3270 o         1 MOL     -0.546150
     23 C9         12.0450    1.9990    1.3500 c3        1 MOL     -0.234490
     24 H8          9.8920    3.0250    0.7790 hn        1 MOL      0.314179
     25 H9         12.0160    2.1140   -0.8140 h1        1 MOL      0.083922
     26 H10        13.0310    1.5640    1.2580 hc        1 MOL      0.066556
     27 H11        12.0710    3.0650    1.5920 hc        1 MOL      0.066556
     28 H12        11.4650    1.4560    2.1000 hc        1 MOL      0.066556
     29 N3          9.6970    0.0480   -0.5560 n         1 MOL     -0.246777
     30 C10         9.2220   -1.3060   -0.9490 c3        1 MOL      0.084498
     31 C11         8.3810   -1.2740   -2.1770 c         1 MOL      0.349321
     32 O6          8.4760   -2.1340   -3.0620 o         1 MOL     -0.557945
     33 C12         8.5040   -2.0790    0.2320 c3        1 MOL     -0.227479
     34 C13         7.3510   -1.2900    0.8050 c         1 MOL      0.856779
     35 O7          7.4550   -0.7000    1.9390 o         1 MOL     -0.818491
     36 O8          6.2710   -1.2690    0.1650 o         1 MOL     -0.818491
     37 H13         8.9740    0.7340   -0.4580 hn        1 MOL      0.112913
     38 H14        10.1260   -1.8520   -1.2190 h1        1 MOL      0.082790
     39 H15         9.2610   -2.2400    0.9880 hc        1 MOL      0.066869
     40 H16         8.1370   -3.0640   -0.0700 hc        1 MOL      0.066869
     41 N4          7.5030   -0.2930   -2.3460 n         1 MOL      0.115798
     42 C14         6.5920   -0.0060   -3.5480 c3        1 MOL     -0.197596
     43 C15         5.5620   -1.0410   -3.7840 c         1 MOL      0.585883
     44 O9          5.1520   -1.2070   -4.9450 o         1 MOL     -0.559539
     45 H17         7.5500    0.4890   -1.7020 hn        1 MOL     -0.051594
     46 H18         7.2290    0.1960   -4.4100 h1        1 MOL      0.106559
     47 H19         6.0740    0.9300   -3.3140 h1        1 MOL      0.106559
     48 N5          5.1300   -1.7690   -2.7530 n         1 MOL     -0.517795
     49 C16         4.3650   -3.0450   -2.9240 c3        1 MOL      0.192174
     50 C17         3.3260   -3.3110   -1.8470 c         1 MOL      0.455089
     51 O10         2.3890   -3.9950   -2.0660 o         1 MOL     -0.471289
     52 C18         5.4010   -4.1560   -2.9100 c3        1 MOL     -0.612856
     53 C19         4.8850   -5.5910   -2.9720 c         1 MOL      0.788876
     54 N6          4.9000   -6.1970   -4.1600 n         1 MOL     -0.839412
     55 O11         4.7040   -6.2990   -1.9860 o         1 MOL     -0.568811
     56 H20         5.6350   -1.7290   -1.8820 hn        1 MOL      0.277219
     57 H21         3.8580   -3.1090   -3.8840 h1        1 MOL      0.101398
     58 H22         6.0860   -4.0790   -2.0770 hc        1 MOL      0.189373
     59 H23         6.0580   -3.9730   -3.7600 hc        1 MOL      0.189373
     60 H24         5.0440   -5.6180   -4.9810 hn        1 MOL      0.369887
     61 H25         4.8740   -7.1980   -4.2100 hn        1 MOL      0.369887
     62 N7          3.5240   -2.7980   -0.5900 n         1 MOL     -0.369377
     63 C20         2.5060   -2.9030    0.5150 c3        1 MOL     -0.008527
     64 C21         2.7090   -1.9730    1.7690 c         1 MOL      0.490676
     65 O12         3.4950   -1.0580    1.8490 o         1 MOL     -0.600351
     66 H26         4.3780   -2.3450   -0.2910 hn        1 MOL      0.270363
     67 H27         2.5140   -3.9390    0.8440 h1        1 MOL      0.110283
     68 H28         1.5090   -2.8300    0.0740 h1        1 MOL      0.110283
     69 N8          1.9100   -2.0970    2.8360 n         1 MOL     -0.242225
     70 C22         1.1130   -3.2510    3.1130 c3        1 MOL     -0.216570
     71 C23        -0.3570   -3.1620    2.6470 c         1 MOL      0.534856
     72 O13        -0.9110   -4.2650    2.4480 o         1 MOL     -0.553316
     73 C24         1.0930   -3.5810    4.6260 c3        1 MOL      0.306624
     74 C25         2.4980   -3.9600    5.0690 c3        1 MOL     -0.404072
     75 O14         0.7190   -2.4850    5.3800 oh        1 MOL     -0.607210
     76 H29         1.9520   -1.3600    3.5210 hn        1 MOL      0.281306
     77 H30         1.5450   -4.0960    2.5730 h1        1 MOL      0.119381
     78 H31         0.3610   -4.3830    4.7980 h1        1 MOL      0.050890
     79 H32         0.7230   -2.8320    6.2720 ho        1 MOL      0.410712
     80 H33         3.1720   -3.1000    5.1300 hc        1 MOL      0.097271
     81 H34         2.4280   -4.4290    6.0570 hc        1 MOL      0.097271
     82 H35         2.9260   -4.6610    4.3490 hc        1 MOL      0.097271
     83 N9         -1.0070   -1.9970    2.5080 n         1 MOL     -0.399290
     84 C26        -2.4220   -1.9240    2.0820 c3        1 MOL     -0.065852
     85 C27        -2.6350   -0.7430    1.0760 c         1 MOL      0.710730
     86 O15        -1.7870    0.1650    0.9470 o         1 MOL     -0.568901
     87 C28        -3.3410   -1.7060    3.4040 c3        1 MOL      0.107211
     88 C29        -2.8880   -0.6590    4.4610 c3        1 MOL      0.180106
     89 C30        -3.4770   -3.0520    4.1080 c3        1 MOL     -0.330080
     90 C31        -3.9390   -0.3910    5.5670 c3        1 MOL     -0.172812
     91 H36        -0.3940   -1.1910    2.5030 hn        1 MOL      0.210938
     92 H37        -2.7360   -2.8690    1.6530 h1        1 MOL      0.157916
     93 H38        -4.3380   -1.4640    3.0450 hc        1 MOL      0.044452
     94 H39        -2.5770    0.3030    4.0490 hc        1 MOL     -0.037587
     95 H40        -2.0640   -1.1050    5.0350 hc        1 MOL     -0.037587
     96 H41        -2.4410   -3.3920    4.1450 hc        1 MOL      0.073088
     97 H42        -4.0640   -3.0780    5.0220 hc        1 MOL      0.073088
     98 H43        -4.0630   -3.7490    3.5190 hc        1 MOL      0.073088
     99 H44        -4.8750   -0.2650    5.0200 hc        1 MOL      0.034590
    100 H45        -4.0800   -1.2790    6.1860 hc        1 MOL      0.034590
    101 H46        -3.6900    0.4390    6.2180 hc        1 MOL      0.034590
    102 N10        -3.7580   -0.7310    0.3300 n         1 MOL     -0.755020
    103 C32        -4.6540   -1.8530    0.0520 c3        1 MOL      0.363326
    104 C33        -6.0150   -1.2860   -0.4420 c         1 MOL      0.550647
    105 O16        -6.1430   -0.2260   -1.0520 o         1 MOL     -0.516851
    106 C34        -4.2700   -2.9000   -1.0080 c3        1 MOL     -0.334379
    107 C35        -3.4920   -2.2480   -2.2460 c         1 MOL      0.737438
    108 O17        -3.8030   -1.1830   -2.6920 o         1 MOL     -0.703517
    109 O18        -2.4670   -2.7930   -2.6680 o         1 MOL     -0.703517
    110 H47        -3.7560   -0.2160   -0.5430 hn        1 MOL      0.403006
    111 H48        -4.9020   -2.3360    0.9960 h1        1 MOL     -0.052764
    112 H49        -5.1880   -3.4290   -1.2900 hc        1 MOL      0.028481
    113 H50        -3.7000   -3.7550   -0.6470 hc        1 MOL      0.028481
    114 N11        -7.0890   -2.0300   -0.1990 n         1 MOL     -0.609326
    115 C36        -8.4480   -1.6200   -0.5700 c3        1 MOL      0.415128
    116 C37        -9.1040   -0.5970    0.4110 c         1 MOL      0.250205
    117 O19        -8.8760   -0.6600    1.5860 o         1 MOL     -0.473572
    118 C38        -9.2980   -2.8890   -0.6670 c3        1 MOL     -0.345995
    119 C39       -10.7520   -2.5160   -1.0090 ca        1 MOL      0.102326
    120 C40       -11.1590   -2.4740   -2.3420 ca        1 MOL     -0.121970
    121 C41       -11.5820   -2.3190    0.0230 ca        1 MOL     -0.121970
    122 C42       -12.4950   -2.2160   -2.6340 ca        1 MOL     -0.153208
    123 C43       -12.9250   -2.0650   -0.2490 ca        1 MOL     -0.153208
    124 C44       -13.4030   -2.0180   -1.5810 ca        1 MOL     -0.128612
    125 H51        -6.9510   -2.8780    0.3410 hn        1 MOL      0.284206
    126 H52        -8.3090   -1.1630   -1.5490 h1        1 MOL      0.038779
    127 H53        -9.2850   -3.3870    0.3040 hc        1 MOL      0.106528
    128 H54        -8.8930   -3.5180   -1.4610 hc        1 MOL      0.106528
    129 H55       -10.4570   -2.7750   -3.0990 ha        1 MOL      0.122961
    130 H56       -11.2670   -2.4310    1.0470 ha        1 MOL      0.122961
    131 H57       -12.8030   -2.0240   -3.6500 ha        1 MOL      0.117074
    132 H58       -13.6450   -1.9020    0.5460 ha        1 MOL      0.117074
    133 H59       -14.4630   -1.8740   -1.7680 ha        1 MOL      0.106884
    134 N12        -9.9120    0.3060   -0.1370 n         1 MOL     -0.033446
    135 C45       -10.1630    0.6930   -1.5140 c3        1 MOL     -0.007803
    136 C46        -9.0820    1.7890   -1.9270 c         1 MOL      0.529602
    137 O20        -8.6630    1.9380   -3.0570 o         1 MOL     -0.562229
    138 C47       -11.5390    1.2180   -1.5260 c3        1 MOL     -0.058972
    139 C48       -11.6250    1.9930   -0.2000 c3        1 MOL      0.002683
    140 C49       -10.8680    1.0510    0.6960 c3        1 MOL     -0.019584
    141 H60       -10.0940   -0.1400   -2.2110 h1        1 MOL      0.019677
    142 H61       -11.8050    1.9120   -2.3260 hc        1 MOL      0.026490
    143 H62       -12.1790    0.3390   -1.4520 hc        1 MOL      0.026490
    144 H63       -11.0870    2.9330   -0.3110 hc        1 MOL      0.012098
    145 H64       -12.6130    2.2050    0.1880 hc        1 MOL      0.012098
    146 H65       -10.3590    1.5880    1.4860 h1        1 MOL      0.040706
    147 H66       -11.6140    0.4140    1.1780 h1        1 MOL      0.040706
    148 N13        -8.5990    2.5900   -0.9550 n         1 MOL     -0.235543
    149 C50        -7.8550    3.8940   -1.2040 c3        1 MOL     -0.146965
    150 C51        -8.7730    4.9330   -1.8960 c         1 MOL      0.513699
    151 O21        -9.6810    5.4930   -1.2860 o         1 MOL     -0.568241
    152 C52        -7.2180    4.3900    0.1000 c3        1 MOL      0.150098
    153 C53        -8.2620    4.5700    1.2060 c3        1 MOL     -0.234337
    154 C54        -7.6420    4.6960    2.5450 c         1 MOL      0.706224
    155 O22        -7.6280    5.7830    3.2040 o         1 MOL     -0.711270
    156 O23        -7.0730    3.7380    3.1160 o         1 MOL     -0.711270
    157 H67        -8.8870    2.4810    0.0030 hn        1 MOL      0.227831
    158 H68        -7.0130    3.6410   -1.8600 h1        1 MOL      0.106457
    159 H69        -6.7960    5.3850   -0.0150 hc        1 MOL      0.001101
    160 H70        -6.3770    3.7370    0.3120 hc        1 MOL      0.001101
    161 H71        -8.9230    3.7030    1.2030 hc        1 MOL      0.035822
    162 H72        -8.8650    5.4470    0.9790 hc        1 MOL      0.035822
    163 N14        -8.5930    5.2100   -3.1440 n         1 MOL     -0.325684
    164 C55        -7.5790    4.6510   -4.1260 c3        1 MOL     -0.169129
    165 H73        -6.9140    3.9610   -3.6060 h1        1 MOL      0.096158
    166 H74        -8.1000    4.1220   -4.9240 h1        1 MOL      0.096158
    167 H75        -6.9950    5.4670   -4.5500 h1        1 MOL      0.096158
    168 H76        -9.2020    5.9250   -3.4960 hn        1 MOL      0.250350
    169 Ca1         5.3340    0.8790    1.4140 Ca        1 MOL      1.773175
    170 O24         6.7090    2.5840    2.9510 oh        1 MOL     -0.821193
    171 H77         7.6530    2.7500    3.0550 ho        1 MOL      0.401345
    172 H78         6.3000    3.1780    3.5740 ho        1 MOL      0.401345
    173 O25         3.0190    2.0130    2.1790 oh        1 MOL     -0.821193
    174 H79         2.3100    1.4130    2.3940 ho        1 MOL      0.401345
    175 H80         2.5900    2.8530    2.0200 ho        1 MOL      0.401345
    176 O26         3.6800    0.8370   -0.8350 oh        1 MOL     -0.821193
    177 H81         2.9670    0.2910   -1.1780 ho        1 MOL      0.401345
    178 H82         3.6910    1.6090   -1.4070 ho        1 MOL      0.401345
    179 O27         4.9580    0.3890    3.9790 oh        1 MOL     -0.821193
    180 H83         5.2180   -0.5180    4.1430 ho        1 MOL      0.401345
    181 H84         4.6770    0.7190    4.8280 ho        1 MOL      0.401345
@<TRIPOS>BOND
     1    1    2 1   
     2    1    4 1   
     3    1    5 1   
     4    1    6 1   
     5    2    3 2   
     6    2    7 1   
     7    7    8 1   
     8    7   15 1   
     9    8    9 1   
    10    8   11 1   
    11    8   16 1   
    12    9   10 2   
    13    9   19 1   
    14   11   12 1   
    15   11   17 1   
    16   11   18 1   
    17   12   13 1   
    18   12   14 1   
    19   19   20 1   
    20   19   24 1   
    21   20   21 1   
    22   20   23 1   
    23   20   25 1   
    24   21   22 2   
    25   21   29 1   
    26   23   26 1   
    27   23   27 1   
    28   23   28 1   
    29   29   30 1   
    30   29   37 1   
    31   30   31 1   
    32   30   33 1   
    33   30   38 1   
    34   31   32 2   
    35   31   41 1   
    36   33   34 1   
    37   33   39 1   
    38   33   40 1   
    39   34   35 1   
    40   34   36 1   
    41   41   42 1   
    42   41   45 1   
    43   42   43 1   
    44   42   46 1   
    45   42   47 1   
    46   43   44 2   
    47   43   48 1   
    48   48   49 1   
    49   48   56 1   
    50   49   50 1   
    51   49   52 1   
    52   49   57 1   
    53   50   51 2   
    54   50   62 1   
    55   52   53 1   
    56   52   58 1   
    57   52   59 1   
    58   53   54 1   
    59   53   55 2   
    60   54   60 1   
    61   54   61 1   
    62   62   63 1   
    63   62   66 1   
    64   63   64 1   
    65   63   67 1   
    66   63   68 1   
    67   64   65 2   
    68   64   69 1   
    69   69   70 1   
    70   69   76 1   
    71   70   71 1   
    72   70   73 1   
    73   70   77 1   
    74   71   72 2   
    75   71   83 1   
    76   73   74 1   
    77   73   75 1   
    78   73   78 1   
    79   74   80 1   
    80   74   81 1   
    81   74   82 1   
    82   75   79 1   
    83   83   84 1   
    84   83   91 1   
    85   84   85 1   
    86   84   87 1   
    87   84   92 1   
    88   85   86 2   
    89   85  102 1   
    90   87   88 1   
    91   87   89 1   
    92   87   93 1   
    93   88   90 1   
    94   88   94 1   
    95   88   95 1   
    96   89   96 1   
    97   89   97 1   
    98   89   98 1   
    99   90   99 1   
   100   90  100 1   
   101   90  101 1   
   102  102  103 1   
   103  102  110 1   
   104  103  104 1   
   105  103  106 1   
   106  103  111 1   
   107  104  105 2   
   108  104  114 1   
   109  106  107 1   
   110  106  112 1   
   111  106  113 1   
   112  107  108 1   
   113  107  109 1   
   114  114  115 1   
   115  114  125 1   
   116  115  116 1   
   117  115  118 1   
   118  115  126 1   
   119  116  117 2   
   120  116  134 1   
   121  118  119 1   
   122  118  127 1   
   123  118  128 1   
   124  119  120 ar  
   125  119  121 ar  
   126  120  122 ar  
   127  120  129 1   
   128  121  123 ar  
   129  121  130 1   
   130  122  124 ar  
   131  122  131 1   
   132  123  124 ar  
   133  123  132 1   
   134  124  133 1   
   135  134  135 1   
   136  134  140 1   
   137  135  136 1   
   138  135  138 1   
   139  135  141 1   
   140  136  137 2   
   141  136  148 1   
   142  138  139 1   
   143  138  142 1   
   144  138  143 1   
   145  139  140 1   
   146  139  144 1   
   147  139  145 1   
   148  140  146 1   
   149  140  147 1   
   150  148  149 1   
   151  148  157 1   
   152  149  150 1   
   153  149  152 1   
   154  149  158 1   
   155  150  151 2   
   156  150  163 1   
   157  152  153 1   
   158  152  159 1   
   159  152  160 1   
   160  153  154 1   
   161  153  161 1   
   162  153  162 1   
   163  154  155 1   
   164  154  156 1   
   165  163  164 1   
   166  163  168 1   
   167  164  165 1   
   168  164  166 1   
   169  164  167 1   
   170  170  171 1   
   171  170  172 1   
   172  173  174 1   
   173  173  175 1   
   174  176  177 1   
   175  176  178 1   
   176  179  180 1   
   177  179  181 1   
@<TRIPOS>SUBSTRUCTURE
     1 MOL         1 TEMP              0 ****  ****    0 ROOT
