@<TRIPOS>MOLECULE
MOL
  189   185     1     0     0
SMALL
resp


@<TRIPOS>ATOM
      1 C1         -4.0940    3.6640    3.8900 c3        1 MOL     -0.463612
      2 C2         -4.9700    2.8980    2.8430 c         1 MOL      0.795597
      3 O1         -4.6040    2.8200    1.6190 o         1 MOL     -0.635902
      4 H1         -4.5320    3.5520    4.8820 hc        1 MOL      0.127405
      5 H2         -3.0840    3.2510    3.8920 hc        1 MOL      0.127405
      6 H3         -4.0540    4.7210    3.6280 hc        1 MOL      0.127405
      7 N1         -6.1590    2.3360    3.2880 n         1 MOL     -0.813731
      8 C3         -6.9780    1.4620    2.4260 c3        1 MOL      0.454563
      9 C4         -6.2320    0.3760    1.7220 c         1 MOL      0.267126
     10 O2         -5.8690    0.3390    0.5490 o         1 MOL     -0.360658
     11 C5         -7.9860    2.1840    1.4750 c3        1 MOL     -0.176518
     12 C6         -7.4190    3.3940    0.7010 c         1 MOL      0.761102
     13 O3         -6.7550    3.1760   -0.3200 o         1 MOL     -0.721947
     14 O4         -7.5680    4.5300    1.1560 o         1 MOL     -0.721947
     15 H4         -6.5750    2.5640    4.1760 hn        1 MOL      0.376260
     16 H5         -7.6010    0.8780    3.0930 h1        1 MOL     -0.029226
     17 H6         -8.7850    2.5470    2.1200 hc        1 MOL     -0.000176
     18 H7         -8.4380    1.4800    0.7620 hc        1 MOL     -0.000176
     19 N2         -5.8910   -0.5710    2.6420 n         1 MOL     -0.433084
     20 C7         -5.3480   -1.9730    2.5590 c3        1 MOL     -0.003224
     21 C8         -6.0830   -2.9620    1.6400 c         1 MOL      0.371433
     22 O5         -6.3400   -4.1090    2.0100 o         1 MOL     -0.533527
     23 C9         -3.8670   -1.9330    2.2450 c3        1 MOL      0.080062
     24 C10        -3.0380   -3.2320    2.5570 c3        1 MOL      0.001246
     25 C11        -3.1280   -0.7700    2.8880 c3        1 MOL     -0.249062
     26 C12        -3.0520   -3.8550    3.9360 c3        1 MOL     -0.114380
     27 H8         -6.1140   -0.2980    3.5920 hn        1 MOL      0.260089
     28 H9         -5.4330   -2.3010    3.5930 h1        1 MOL      0.098081
     29 H10        -3.6990   -1.7450    1.1880 hc        1 MOL     -0.014710
     30 H11        -1.9930   -3.1100    2.2760 hc        1 MOL      0.031074
     31 H12        -3.3930   -4.0720    1.9630 hc        1 MOL      0.031074
     32 H13        -3.4530    0.2100    2.5390 hc        1 MOL      0.056318
     33 H14        -3.2560   -0.8250    3.9750 hc        1 MOL      0.056318
     34 H15        -2.0470   -0.7030    2.7860 hc        1 MOL      0.056318
     35 H16        -2.2420   -4.5650    4.0780 hc        1 MOL      0.003721
     36 H17        -2.7720   -3.0470    4.6240 hc        1 MOL      0.003721
     37 H18        -4.1030   -4.0530    4.1290 hc        1 MOL      0.003721
     38 N3         -6.5050   -2.5080    0.4380 n         1 MOL     -0.163696
     39 C13        -7.2090   -3.2770   -0.6020 c3        1 MOL      0.089767
     40 C14        -6.4330   -4.4760   -1.1670 c         1 MOL      0.608776
     41 O6         -7.1450   -5.4530   -1.1880 o         1 MOL     -0.595777
     42 C15        -7.5820   -2.3090   -1.8170 c3        1 MOL     -0.265515
     43 C16        -8.5510   -1.2230   -1.3460 c         1 MOL      0.753662
     44 O7         -8.4870   -0.1250   -1.9080 o         1 MOL     -0.723184
     45 O8         -9.3770   -1.4750   -0.4420 o         1 MOL     -0.723184
     46 H19        -6.4450   -1.4910    0.4240 hn        1 MOL      0.215849
     47 H20        -8.1700   -3.6070   -0.2170 h1        1 MOL      0.044469
     48 H21        -8.0920   -2.8920   -2.5870 hc        1 MOL      0.065834
     49 H22        -6.6850   -1.8390   -2.2180 hc        1 MOL      0.065834
     50 N4         -5.1070   -4.6270   -1.4150 n         1 MOL     -0.587235
     51 C17        -4.2080   -3.5000   -1.6600 c3        1 MOL      0.214092
     52 C18        -4.4700   -2.8830   -3.1260 c         1 MOL      0.326687
     53 O9         -5.2690   -3.4080   -3.8700 o         1 MOL     -0.535850
     54 H23        -4.8160   -5.5770   -1.5360 hn        1 MOL      0.303326
     55 H24        -3.1730   -3.8300   -1.5590 h1        1 MOL      0.033747
     56 H25        -4.3590   -2.8160   -0.8180 h1        1 MOL      0.033747
     57 N5         -3.8460   -1.8610   -3.6520 n         1 MOL     -0.213360
     58 C19        -2.5700   -1.2720   -3.2310 c3        1 MOL      0.065095
     59 C20        -2.4570   -0.8700   -1.7090 c         1 MOL      0.025850
     60 O10        -3.4550   -0.4900   -1.1360 o         1 MOL     -0.411181
     61 C21        -2.1080   -0.1160   -4.0980 c3        1 MOL     -0.153667
     62 C22        -3.0620    1.0370   -4.1890 c         1 MOL      0.723930
     63 O11        -3.7830    1.1160   -5.1610 o         1 MOL     -0.691258
     64 O12        -3.0290    1.7850   -3.1930 o         1 MOL     -0.691258
     65 H26        -4.1600   -1.7260   -4.6040 hn        1 MOL      0.268043
     66 H27        -1.8320   -2.0670   -3.3180 h1        1 MOL      0.004592
     67 H28        -1.9520   -0.5590   -5.0760 hc        1 MOL      0.023557
     68 H29        -1.1750    0.2590   -3.6640 hc        1 MOL      0.023557
     69 N6         -1.2910   -0.8410   -1.0210 n         1 MOL      0.020003
     70 C23         0.0160   -1.3210   -1.5000 c3        1 MOL      0.030834
     71 C24         0.3090   -2.7260   -1.0310 c         1 MOL      0.598631
     72 O13        -0.4990   -3.2900   -0.2930 o         1 MOL     -0.591389
     73 H30        -1.3600   -0.3290   -0.1520 hn        1 MOL      0.161935
     74 H31         0.8730   -0.7520   -1.1320 h1        1 MOL      0.013731
     75 H32         0.0280   -1.3930   -2.5870 h1        1 MOL      0.013731
     76 N7          1.4770   -3.2760   -1.3360 n         1 MOL     -0.423637
     77 C25         1.8860   -4.6100   -0.8360 c3        1 MOL     -0.010453
     78 C26         2.6230   -4.7620    0.5790 c         1 MOL      0.333517
     79 O14         2.8740   -5.8550    1.0370 o         1 MOL     -0.489950
     80 C27         2.6290   -5.3560   -1.9220 c3        1 MOL     -0.051793
     81 C28         3.7940   -4.5770   -2.5460 c3        1 MOL     -0.307578
     82 C29         4.8540   -4.2200   -1.5020 c         1 MOL      0.543018
     83 N8          5.6680   -5.1550   -1.0770 n         1 MOL     -0.674501
     84 O15         4.8640   -3.0850   -1.0380 o         1 MOL     -0.560269
     85 H33         2.1120   -2.6730   -1.8420 hn        1 MOL      0.271910
     86 H34         0.9900   -5.2240   -0.7070 h1        1 MOL      0.135468
     87 H35         1.9130   -5.6130   -2.7070 hc        1 MOL      0.056727
     88 H36         3.0210   -6.2800   -1.4960 hc        1 MOL      0.056727
     89 H37         3.3260   -3.6630   -2.9240 hc        1 MOL      0.104558
     90 H38         4.2980   -5.1670   -3.3180 hc        1 MOL      0.104558
     91 H39         5.7050   -6.0490   -1.5370 hn        1 MOL      0.356327
     92 H40         6.1600   -4.9850   -0.2200 hn        1 MOL      0.356327
     93 N9          2.9310   -3.5830    1.1360 n         1 MOL     -0.097769
     94 C30         3.4420   -3.3580    2.4650 c3        1 MOL     -0.208283
     95 C31         4.7190   -2.5370    2.6440 c         1 MOL      0.404782
     96 O16         5.0920   -2.1900    3.7460 o         1 MOL     -0.528663
     97 C32         2.3640   -2.7020    3.2980 c3        1 MOL      0.257238
     98 C33         1.0180   -3.4440    3.3160 c3        1 MOL     -0.270309
     99 C34         1.9780   -1.2040    2.9760 c3        1 MOL     -0.270309
    100 H41         2.6720   -2.7590    0.6100 hn        1 MOL      0.182691
    101 H42         3.6750   -4.3100    2.9440 h1        1 MOL      0.131492
    102 H43         2.6310   -2.7480    4.3560 hc        1 MOL     -0.021415
    103 H44         1.2140   -4.4970    3.5060 hc        1 MOL      0.077499
    104 H45         0.3640   -3.0180    4.0840 hc        1 MOL      0.077499
    105 H46         0.5140   -3.2820    2.3610 hc        1 MOL      0.077499
    106 H47         1.5300   -1.2000    1.9840 hc        1 MOL      0.077499
    107 H48         1.2390   -0.8750    3.7060 hc        1 MOL      0.077499
    108 H49         2.8530   -0.5470    3.0020 hc        1 MOL      0.077499
    109 N10         5.4580   -2.2140    1.6090 n         1 MOL     -0.195997
    110 C35         6.6800   -1.4390    1.6650 c3        1 MOL      0.026917
    111 C36         6.7400    0.0350    1.2350 c         1 MOL      0.463266
    112 O17         7.6660    0.7830    1.6290 o         1 MOL     -0.541059
    113 C37         7.6970   -2.1840    0.7980 c3        1 MOL     -0.357740
    114 C38         7.9500   -3.5450    1.3650 c         1 MOL      0.641752
    115 N11         8.2880   -3.6820    2.6540 n         1 MOL     -0.745318
    116 O18         7.9290   -4.5270    0.6090 o         1 MOL     -0.573205
    117 H50         5.1790   -2.3430    0.6470 hn        1 MOL      0.259931
    118 H51         6.9880   -1.4430    2.7040 h1        1 MOL      0.068991
    119 H52         8.6110   -1.5880    0.8070 hc        1 MOL      0.127168
    120 H53         7.3580   -2.2350   -0.2350 hc        1 MOL      0.127168
    121 H54         8.3500   -2.8950    3.2790 hn        1 MOL      0.360988
    122 H55         8.4570   -4.6150    3.0220 hn        1 MOL      0.360988
    123 N12         5.7780    0.5450    0.4520 n         1 MOL     -0.327157
    124 C39         5.9140    1.8120   -0.2490 c3        1 MOL      0.244002
    125 C40         4.6130    2.6360   -0.2270 c         1 MOL      0.251502
    126 O19         3.4930    2.1160   -0.2670 o         1 MOL     -0.410695
    127 C41         6.2550    1.4750   -1.6650 c3        1 MOL      0.030036
    128 C42         7.6730    0.9650   -1.8350 ca        1 MOL     -0.053131
    129 C43         7.8630   -0.3330   -2.2460 ca        1 MOL     -0.145184
    130 C44         8.7390    1.6950   -1.3760 ca        1 MOL     -0.145184
    131 C45         9.1540   -0.8300   -2.3370 ca        1 MOL     -0.210450
    132 C46        10.0340    1.1750   -1.3120 ca        1 MOL     -0.210450
    133 C47        10.1810   -0.1520   -1.7480 ca        1 MOL      0.312412
    134 O20        11.4180   -0.7440   -1.7880 oh        1 MOL     -0.513981
    135 H56         4.9460   -0.0210    0.3400 hn        1 MOL      0.181393
    136 H57         6.7420    2.4240    0.1070 h1        1 MOL      0.037620
    137 H58         6.2510    2.3500   -2.3190 hc        1 MOL      0.043179
    138 H59         5.5400    0.7760   -2.1160 hc        1 MOL      0.043179
    139 H60         6.9810   -0.8980   -2.5030 ha        1 MOL      0.132789
    140 H61         8.5690    2.7350   -1.1190 ha        1 MOL      0.132789
    141 H62         9.2220   -1.8090   -2.7860 ha        1 MOL      0.136181
    142 H63        10.8510    1.7930   -0.9910 ha        1 MOL      0.136181
    143 H64        11.3990   -1.5950   -2.2270 ho        1 MOL      0.348445
    144 N13         4.7470    3.9830   -0.1250 n         1 MOL     -0.560760
    145 C48         3.7340    5.0710   -0.3350 c3        1 MOL      0.106103
    146 C49         2.5350    5.0430    0.6500 c         1 MOL      0.500326
    147 O21         2.0460    6.1300    1.0180 o         1 MOL     -0.591305
    148 C50         3.2410    4.9940   -1.7340 c3        1 MOL     -0.098832
    149 C51         4.3000    4.7760   -2.7690 c3        1 MOL     -0.280217
    150 C52         3.9870    5.5200   -4.0910 c         1 MOL      0.735740
    151 O22         3.6030    4.8670   -5.0820 o         1 MOL     -0.742636
    152 O23         4.3760    6.7240   -4.1630 o         1 MOL     -0.742636
    153 H65         5.7300    4.2110   -0.1050 hn        1 MOL      0.319556
    154 H66         4.1840    6.0530   -0.2750 h1        1 MOL      0.065085
    155 H67         2.6640    5.8820   -2.0080 hc        1 MOL      0.093004
    156 H68         2.5030    4.2030   -1.8190 hc        1 MOL      0.093004
    157 H69         4.4700    3.7360   -3.0260 hc        1 MOL      0.055935
    158 H70         5.2610    5.1450   -2.4020 hc        1 MOL      0.055935
    159 N14         2.2740    3.9160    1.2350 n         1 MOL     -0.354152
    160 C53         1.1570    3.7370    2.1340 c3        1 MOL     -0.081142
    161 C54         1.3890    4.3080    3.5540 c         1 MOL      0.403764
    162 O24         0.3900    4.2280    4.3060 o         1 MOL     -0.529420
    163 C55         0.7100    2.2750    2.2630 c3        1 MOL     -0.020635
    164 C56         0.2570    1.6690    0.9270 c3        1 MOL      0.216252
    165 C57        -0.8430    2.4570    0.2510 c         1 MOL      0.618138
    166 O25        -1.9960    1.9400    0.0920 o         1 MOL     -0.679896
    167 O26        -0.5940    3.5610   -0.3500 o         1 MOL     -0.679896
    168 H71         2.7640    3.0900    0.9450 hn        1 MOL      0.288996
    169 H72         0.3790    4.3690    1.7110 h1        1 MOL      0.189192
    170 H73        -0.0460    2.1640    3.0480 hc        1 MOL      0.005599
    171 H74         1.5940    1.7310    2.5850 hc        1 MOL      0.005599
    172 H75         0.0250    0.6140    1.0910 hc        1 MOL     -0.088877
    173 H76         1.1330    1.6420    0.2660 hc        1 MOL     -0.088877
    174 N15         2.5260    4.9400    3.8770 n         1 MOL     -0.198544
    175 C58         2.9680    5.3440    5.2270 c3        1 MOL     -0.076462
    176 H77         2.2160    5.0490    5.9580 h1        1 MOL      0.052089
    177 H78         3.9130    4.8540    5.4630 h1        1 MOL      0.052089
    178 H79         3.1010    6.4260    5.2590 h1        1 MOL      0.052089
    179 H80         3.3060    4.8970    3.2230 hn        1 MOL      0.205642
    180 Ca1        -4.3370    2.1960   -0.8890 Ca        1 MOL      1.785993
    181 O27        -5.7710    0.6490   -2.4860 oh        1 MOL     -0.865091
    182 H81        -5.6610    0.0430   -3.2130 ho        1 MOL      0.404301
    183 H82        -6.7080    0.8680   -2.5000 ho        1 MOL      0.404301
    184 O28        -3.0710    4.5270   -0.6680 oh        1 MOL     -0.865091
    185 H83        -2.2050    4.2120   -0.4040 ho        1 MOL      0.404301
    186 H84        -2.8950    5.2410   -1.2730 ho        1 MOL      0.404301
    187 O29        -4.9760    4.2610   -2.7190 oh        1 MOL     -0.865091
    188 H85        -4.3030    4.4400   -3.3680 ho        1 MOL      0.404301
    189 H86        -5.5200    5.0520   -2.7130 ho        1 MOL      0.404301
@<TRIPOS>BOND
     1    1    2 1   
     2    1    4 1   
     3    1    5 1   
     4    1    6 1   
     5    2    3 2   
     6    2    7 1   
     7    7    8 1   
     8    7   15 1   
     9    8    9 1   
    10    8   11 1   
    11    8   16 1   
    12    9   10 2   
    13    9   19 1   
    14   11   12 1   
    15   11   17 1   
    16   11   18 1   
    17   12   13 1   
    18   12   14 1   
    19   19   20 1   
    20   19   27 1   
    21   20   21 1   
    22   20   23 1   
    23   20   28 1   
    24   21   22 2   
    25   21   38 1   
    26   23   24 1   
    27   23   25 1   
    28   23   29 1   
    29   24   26 1   
    30   24   30 1   
    31   24   31 1   
    32   25   32 1   
    33   25   33 1   
    34   25   34 1   
    35   26   35 1   
    36   26   36 1   
    37   26   37 1   
    38   38   39 1   
    39   38   46 1   
    40   39   40 1   
    41   39   42 1   
    42   39   47 1   
    43   40   41 2   
    44   40   50 1   
    45   42   43 1   
    46   42   48 1   
    47   42   49 1   
    48   43   44 1   
    49   43   45 1   
    50   50   51 1   
    51   50   54 1   
    52   51   52 1   
    53   51   55 1   
    54   51   56 1   
    55   52   53 2   
    56   52   57 1   
    57   57   58 1   
    58   57   65 1   
    59   58   59 1   
    60   58   61 1   
    61   58   66 1   
    62   59   60 2   
    63   59   69 1   
    64   61   62 1   
    65   61   67 1   
    66   61   68 1   
    67   62   63 1   
    68   62   64 1   
    69   69   70 1   
    70   69   73 1   
    71   70   71 1   
    72   70   74 1   
    73   70   75 1   
    74   71   72 2   
    75   71   76 1   
    76   76   77 1   
    77   76   85 1   
    78   77   78 1   
    79   77   80 1   
    80   77   86 1   
    81   78   79 2   
    82   78   93 1   
    83   80   81 1   
    84   80   87 1   
    85   80   88 1   
    86   81   82 1   
    87   81   89 1   
    88   81   90 1   
    89   82   83 1   
    90   82   84 2   
    91   83   91 1   
    92   83   92 1   
    93   93   94 1   
    94   93  100 1   
    95   94   95 1   
    96   94   97 1   
    97   94  101 1   
    98   95   96 2   
    99   95  109 1   
   100   97   98 1   
   101   97   99 1   
   102   97  102 1   
   103   98  103 1   
   104   98  104 1   
   105   98  105 1   
   106   99  106 1   
   107   99  107 1   
   108   99  108 1   
   109  109  110 1   
   110  109  117 1   
   111  110  111 1   
   112  110  113 1   
   113  110  118 1   
   114  111  112 2   
   115  111  123 1   
   116  113  114 1   
   117  113  119 1   
   118  113  120 1   
   119  114  115 1   
   120  114  116 2   
   121  115  121 1   
   122  115  122 1   
   123  123  124 1   
   124  123  135 1   
   125  124  125 1   
   126  124  127 1   
   127  124  136 1   
   128  125  126 2   
   129  125  144 1   
   130  127  128 1   
   131  127  137 1   
   132  127  138 1   
   133  128  129 ar  
   134  128  130 ar  
   135  129  131 ar  
   136  129  139 1   
   137  130  132 ar  
   138  130  140 1   
   139  131  133 ar  
   140  131  141 1   
   141  132  133 ar  
   142  132  142 1   
   143  133  134 1   
   144  134  143 1   
   145  144  145 1   
   146  144  153 1   
   147  145  146 1   
   148  145  148 1   
   149  145  154 1   
   150  146  147 2   
   151  146  159 1   
   152  148  149 1   
   153  148  155 1   
   154  148  156 1   
   155  149  150 1   
   156  149  157 1   
   157  149  158 1   
   158  150  151 1   
   159  150  152 1   
   160  159  160 1   
   161  159  168 1   
   162  160  161 1   
   163  160  163 1   
   164  160  169 1   
   165  161  162 2   
   166  161  174 1   
   167  163  164 1   
   168  163  170 1   
   169  163  171 1   
   170  164  165 1   
   171  164  172 1   
   172  164  173 1   
   173  165  166 1   
   174  165  167 1   
   175  174  175 1   
   176  174  179 1   
   177  175  176 1   
   178  175  177 1   
   179  175  178 1   
   180  181  182 1   
   181  181  183 1   
   182  184  185 1   
   183  184  186 1   
   184  187  188 1   
   185  187  189 1   
@<TRIPOS>SUBSTRUCTURE
     1 MOL         1 TEMP              0 ****  ****    0 ROOT
