@<TRIPOS>MOLECULE
MOL
  185   180     1     0     0
SMALL
resp


@<TRIPOS>ATOM
      1 C1         -5.0200    0.4430    4.9270 c3        1 MOL     -0.433312
      2 C2         -5.2890   -0.1410    3.4950 c         1 MOL      0.648751
      3 O1         -4.6000    0.1060    2.4570 o         1 MOL     -0.541174
      4 H1         -5.7970    0.1010    5.6100 hc        1 MOL      0.125009
      5 H2         -4.0490    0.1010    5.2830 hc        1 MOL      0.125009
      6 H3         -5.0290    1.5320    4.8840 hc        1 MOL      0.125009
      7 N1         -6.3060   -1.0570    3.3330 n         1 MOL     -0.545689
      8 C3         -6.5430   -1.6950    2.0490 c3        1 MOL     -0.024664
      9 C4         -6.6010   -0.8410    0.7730 c         1 MOL      0.485953
     10 O2         -6.3140   -1.2560   -0.3240 o         1 MOL     -0.518462
     11 C5         -5.5180   -2.8440    1.9220 c3        1 MOL     -0.310767
     12 C6         -5.5340   -3.7570    3.1690 c         1 MOL      0.909854
     13 O3         -6.6880   -4.2010    3.5360 o         1 MOL     -0.719959
     14 O4         -4.4790   -4.0300    3.7940 o         1 MOL     -0.719959
     15 H4         -6.8490   -1.2420    4.1690 hn        1 MOL      0.314866
     16 H5         -7.5350   -2.1290    2.1350 h1        1 MOL      0.066824
     17 H6         -4.5130   -2.4350    1.7450 hc        1 MOL      0.146434
     18 H7         -5.9370   -3.5060    1.1650 hc        1 MOL      0.146434
     19 N2         -7.0950    0.3860    0.9210 n         1 MOL     -0.219371
     20 C7         -7.4660    1.2330   -0.2280 c3        1 MOL      0.018201
     21 C8         -6.2140    2.0550   -0.7580 c         1 MOL      0.568420
     22 O5         -6.3210    2.5590   -1.8540 o         1 MOL     -0.578300
     23 C9         -8.5870    2.2380    0.1120 c3        1 MOL     -0.184115
     24 C10        -9.8680    1.6100    0.7150 c3        1 MOL      0.185839
     25 C11       -10.8750    1.1810   -0.3780 c3        1 MOL     -0.270876
     26 C12       -12.1170    0.4260    0.1780 c3        1 MOL     -0.244749
     27 N3        -13.1410    0.2710   -0.8080 n4        1 MOL     -0.125750
     28 H8         -7.0280    0.7160    1.8690 hn        1 MOL      0.183577
     29 H9         -7.7550    0.5040   -0.9850 h1        1 MOL      0.072105
     30 H10        -8.9080    2.6770   -0.8300 hc        1 MOL      0.055789
     31 H11        -8.1660    3.0270    0.7210 hc        1 MOL      0.055789
     32 H12       -10.3160    2.3440    1.3790 hc        1 MOL     -0.025844
     33 H13        -9.5400    0.8250    1.3940 hc        1 MOL     -0.025844
     34 H14       -10.4630    0.4590   -1.0780 hc        1 MOL      0.129782
     35 H15       -11.2300    2.1310   -0.7770 hc        1 MOL      0.129782
     36 H16       -12.5340    1.0460    0.9780 hx        1 MOL      0.170776
     37 H17       -11.6920   -0.5700    0.3090 hx        1 MOL      0.170776
     38 H18       -13.9900   -0.1570   -0.4790 hn        1 MOL      0.240444
     39 H19       -13.5220    1.1560   -1.1220 hn        1 MOL      0.240444
     40 H20       -12.7840   -0.2320   -1.6160 hn        1 MOL      0.240444
     41 N4         -5.1480    2.2110    0.0330 n         1 MOL     -0.488867
     42 C13        -3.9260    2.9080   -0.4740 c3        1 MOL      0.197006
     43 C14        -3.4550    2.3040   -1.8300 c         1 MOL      0.471154
     44 O6         -3.3780    1.0950   -1.8810 o         1 MOL     -0.415890
     45 C15        -2.8740    2.8640    0.6330 c3        1 MOL     -0.125644
     46 C16        -1.7640    3.8940    0.3630 c         1 MOL      0.532355
     47 O7         -1.7040    4.5490   -0.7060 o         1 MOL     -0.663799
     48 O8         -0.8910    4.1520    1.2270 o         1 MOL     -0.663799
     49 H21        -5.2190    1.8900    0.9830 hn        1 MOL      0.252050
     50 H22        -4.1810    3.9380   -0.7330 h1        1 MOL     -0.017593
     51 H23        -2.4200    1.8790    0.6300 hc        1 MOL      0.075868
     52 H24        -3.2980    3.1870    1.5880 hc        1 MOL      0.075868
     53 N5         -3.1270    3.1160   -2.8100 n         1 MOL     -0.231861
     54 C17        -2.5330    2.8200   -4.0960 c3        1 MOL     -0.170244
     55 C18        -1.3040    1.9480   -4.0970 c         1 MOL      0.476840
     56 O9         -1.0890    1.1490   -5.0140 o         1 MOL     -0.542970
     57 H25        -3.2890    4.1060   -2.6780 hn        1 MOL      0.202720
     58 H26        -2.2510    3.7560   -4.5740 h1        1 MOL      0.099163
     59 H27        -3.2630    2.3100   -4.7190 h1        1 MOL      0.099163
     60 N6         -0.5560    2.0070   -3.0490 n         1 MOL     -0.225642
     61 C19         0.6010    1.1240   -2.7210 c3        1 MOL     -0.096576
     62 C20         0.1010   -0.3190   -2.5600 c         1 MOL      0.476046
     63 O10         0.9470   -1.2490   -2.5340 o         1 MOL     -0.541428
     64 C21         1.2190    1.6290   -1.3720 c3        1 MOL     -0.295677
     65 C22         1.7700    2.9990   -1.5480 c         1 MOL      0.750975
     66 N7          3.0460    3.1370   -1.8560 n         1 MOL     -0.849184
     67 O11         1.1120    4.0030   -1.6010 o         1 MOL     -0.580745
     68 H28        -0.6930    2.7530   -2.3810 hn        1 MOL      0.140996
     69 H29         1.3630    1.0100   -3.4860 h1        1 MOL      0.103308
     70 H30         1.9780    0.9320   -1.0070 hc        1 MOL      0.145129
     71 H31         0.4090    1.5800   -0.6490 hc        1 MOL      0.145129
     72 H32         3.6410    2.3310   -1.9540 hn        1 MOL      0.377791
     73 H33         3.2840    3.8900   -2.4860 hn        1 MOL      0.377791
     74 N8         -1.2010   -0.5030   -2.3310 n         1 MOL     -0.103492
     75 C23        -1.8210   -1.8230   -2.1520 c3        1 MOL     -0.213186
     76 C24        -1.2440   -2.6320   -0.9940 c         1 MOL      0.629694
     77 O12        -1.1460   -2.0140    0.0680 o         1 MOL     -0.540409
     78 H34        -1.7770    0.3150   -2.1910 hn        1 MOL      0.150667
     79 H35        -1.7300   -2.3510   -3.1030 h1        1 MOL      0.093563
     80 H36        -2.8850   -1.6150   -2.0320 h1        1 MOL      0.093563
     81 N9         -0.8280   -3.8830   -1.2810 n         1 MOL     -0.592715
     82 C25        -0.1040   -4.9200   -0.4930 c3        1 MOL      0.072422
     83 C26         1.2950   -4.5360   -0.0650 c         1 MOL      0.433489
     84 O13         2.0840   -5.4940    0.0980 o         1 MOL     -0.585403
     85 C27        -1.0420   -5.4530    0.6270 c3        1 MOL     -0.238421
     86 C28        -2.2970   -6.0740    0.2170 ca        1 MOL      0.165159
     87 C29        -3.4290   -5.5720    0.7220 ca        1 MOL     -0.149816
     88 C30        -2.3210   -7.0630   -0.7980 ca        1 MOL     -0.149816
     89 C31        -4.7070   -6.0680    0.2480 ca        1 MOL     -0.296915
     90 C32        -3.5390   -7.5890   -1.2640 ca        1 MOL     -0.296915
     91 C33        -4.7470   -7.0790   -0.6940 ca        1 MOL      0.337271
     92 O14        -6.0260   -7.6500   -0.8720 oh        1 MOL     -0.483267
     93 H37        -0.9340   -4.0150   -2.2830 hn        1 MOL      0.322140
     94 H38         0.0080   -5.7480   -1.2010 h1        1 MOL      0.105882
     95 H39        -1.1990   -4.7360    1.4400 hc        1 MOL      0.128837
     96 H40        -0.5170   -6.2740    1.1230 hc        1 MOL      0.128837
     97 H41        -3.3170   -4.8970    1.5630 ha        1 MOL      0.103419
     98 H42        -1.3900   -7.3600   -1.2780 ha        1 MOL      0.103419
     99 H43        -5.5850   -5.7690    0.7910 ha        1 MOL      0.143534
    100 H44        -3.5980   -8.3230   -2.0400 ha        1 MOL      0.143534
    101 H45        -5.9630   -8.3560   -1.5230 ho        1 MOL      0.341999
    102 N10         1.6130   -3.2810    0.1640 n         1 MOL     -0.381966
    103 C34         2.8720   -2.6740    0.6300 c3        1 MOL      0.036747
    104 C35         3.9570   -2.7230   -0.4970 c         1 MOL      0.451467
    105 O15         4.3780   -1.6380   -0.9140 o         1 MOL     -0.551973
    106 C36         3.3690   -3.3600    1.9360 c3        1 MOL      0.169199
    107 C37         2.3680   -3.8360    3.0590 c3        1 MOL      0.038044
    108 C38         4.4960   -2.5540    2.5880 c3        1 MOL     -0.614129
    109 C39         1.4560   -2.7560    3.4910 c3        1 MOL     -0.268090
    110 H46         0.9120   -2.5840   -0.0740 hn        1 MOL      0.312152
    111 H47         2.6270   -1.6230    0.7900 h1        1 MOL      0.115406
    112 H48         3.9560   -4.2510    1.6870 hc        1 MOL     -0.052692
    113 H49         2.9620   -4.2150    3.8930 hc        1 MOL      0.014943
    114 H50         1.6810   -4.6230    2.7420 hc        1 MOL      0.014943
    115 H51         5.0050   -3.2080    3.2970 hc        1 MOL      0.149691
    116 H52         5.2200   -2.2230    1.8480 hc        1 MOL      0.149691
    117 H53         4.0630   -1.7240    3.1360 hc        1 MOL      0.149691
    118 H54         1.0190   -2.3310    2.5900 hc        1 MOL      0.085826
    119 H55         0.6500   -3.1680    4.1010 hc        1 MOL      0.085826
    120 H56         1.9730   -1.9040    3.9440 hc        1 MOL      0.085826
    121 N11         4.4060   -3.8470   -1.0600 n         1 MOL     -0.164190
    122 C40         5.3670   -3.9430   -2.1610 c3        1 MOL     -0.092668
    123 C41         6.9000   -3.6910   -1.7400 c         1 MOL      0.281588
    124 O16         7.6710   -3.1600   -2.4780 o         1 MOL     -0.426991
    125 C42         5.1960   -5.3520   -2.7550 c3        1 MOL      0.075087
    126 O17         3.8700   -5.4360   -3.2920 oh        1 MOL     -0.578394
    127 H57         4.0710   -4.6860   -0.6140 hn        1 MOL      0.274858
    128 H58         5.1290   -3.2130   -2.9260 h1        1 MOL      0.167041
    129 H59         5.2760   -6.1550   -2.0200 h1        1 MOL      0.053344
    130 H60         5.8880   -5.4680   -3.5810 h1        1 MOL      0.053344
    131 H61         3.8190   -6.2290   -3.8230 ho        1 MOL      0.395428
    132 N12         7.1810   -3.8910   -0.3880 n         1 MOL     -0.196063
    133 C43         8.4390   -3.5420    0.3650 c3        1 MOL      0.186228
    134 C44         8.8980   -2.0340    0.2030 c         1 MOL      0.482522
    135 O18        10.1100   -1.7010    0.2630 o         1 MOL     -0.523206
    136 C45         9.3940   -4.7750    0.2720 c3        1 MOL     -0.286387
    137 H62         6.4790   -4.4180    0.1080 hn        1 MOL      0.166640
    138 H63         8.1430   -3.6140    1.4060 h1        1 MOL      0.059880
    139 H64        10.1000   -4.6920   -0.5450 hc        1 MOL      0.076594
    140 H65         9.8830   -4.8910    1.2420 hc        1 MOL      0.076594
    141 H66         8.8220   -5.6970    0.2040 hc        1 MOL      0.076594
    142 N13         7.9390   -1.0770    0.0340 n         1 MOL     -0.631691
    143 C46         8.1250    0.3300   -0.1460 c3        1 MOL      0.406522
    144 C47         7.1650    1.2250    0.6740 c         1 MOL      0.484429
    145 O19         6.3340    0.6770    1.4350 o         1 MOL     -0.462269
    146 C48         8.0450    0.5400   -1.6850 c3        1 MOL     -0.505783
    147 H67         7.0410   -1.4900   -0.1760 hn        1 MOL      0.339730
    148 H68         9.1380    0.5680    0.1860 h1        1 MOL      0.022258
    149 H69         7.0410    0.2830   -2.0280 hc        1 MOL      0.135558
    150 H70         8.1800    1.5870   -1.9610 hc        1 MOL      0.135558
    151 H71         8.8850    0.0380   -2.1530 hc        1 MOL      0.135558
    152 N14         7.3160    2.5590    0.4930 n         1 MOL     -0.578898
    153 C49         6.6840    3.6230    1.2490 c3        1 MOL      0.039011
    154 C50         6.9530    3.5360    2.7650 c         1 MOL      0.397140
    155 O20         6.2220    4.0970    3.6160 o         1 MOL     -0.480434
    156 C51         5.1970    3.7060    0.8350 c3        1 MOL      0.086151
    157 C52         4.4880    4.9530    1.3900 c3        1 MOL     -0.355758
    158 C53         3.1230    5.2250    0.7700 c         1 MOL      1.091650
    159 O21         2.0810    4.8820    1.3710 o         1 MOL     -0.887382
    160 O22         2.8970    5.8750   -0.2920 o         1 MOL     -0.887382
    161 H72         7.9820    2.8710   -0.2100 hn        1 MOL      0.292551
    162 H73         7.1080    4.5880    0.9790 h1        1 MOL      0.085018
    163 H74         4.7260    2.7460    1.0050 hc        1 MOL      0.023015
    164 H75         5.1340    3.7490   -0.2530 hc        1 MOL      0.023015
    165 H76         5.1430    5.7650    1.0660 hc        1 MOL      0.067128
    166 H77         4.3210    4.9020    2.4680 hc        1 MOL      0.067128
    167 N15         8.0450    2.8340    3.0920 n         1 MOL     -0.317882
    168 C54         8.3330    2.2610    4.4460 c3        1 MOL     -0.028860
    169 H78         7.4210    2.2590    5.0410 h1        1 MOL      0.065562
    170 H79         8.6990    1.2400    4.3380 h1        1 MOL      0.065562
    171 H80         9.0900    2.8670    4.9440 h1        1 MOL      0.065562
    172 H81         8.6640    2.4670    2.3800 hn        1 MOL      0.231847
    173 Ca1         0.2430    6.1350   -0.0620 Ca        1 MOL      1.729889
    174 O23         1.1690    7.8920    1.9220 oh        1 MOL     -0.798008
    175 H82         0.4340    8.2110    2.4490 ho        1 MOL      0.398263
    176 H83         1.9320    8.3560    2.2680 ho        1 MOL      0.398263
    177 O24        -0.5050    6.3590   -2.7920 oh        1 MOL     -0.798008
    178 H84        -0.0780    5.8350   -3.4700 ho        1 MOL      0.398263
    179 H85        -1.4150    6.0720   -2.8080 ho        1 MOL      0.398263
    180 O25         0.0940    8.7490   -0.5930 oh        1 MOL     -0.798008
    181 H86         0.5980    9.1040    0.1430 ho        1 MOL      0.398263
    182 H87        -0.2210    9.5200   -1.0660 ho        1 MOL      0.398263
    183 O26        -2.2990    7.1310    0.3350 oh        1 MOL     -0.798008
    184 H88        -3.1700    6.7870    0.5450 ho        1 MOL      0.398263
    185 H89        -2.3830    8.0780    0.4420 ho        1 MOL      0.398263
@<TRIPOS>BOND
     1    1    2 1   
     2    1    4 1   
     3    1    5 1   
     4    1    6 1   
     5    2    3 2   
     6    2    7 1   
     7    7    8 1   
     8    7   15 1   
     9    8    9 1   
    10    8   11 1   
    11    8   16 1   
    12    9   10 2   
    13    9   19 1   
    14   11   12 1   
    15   11   17 1   
    16   11   18 1   
    17   12   13 1   
    18   12   14 1   
    19   19   20 1   
    20   19   28 1   
    21   20   21 1   
    22   20   23 1   
    23   20   29 1   
    24   21   22 2   
    25   21   41 1   
    26   23   24 1   
    27   23   30 1   
    28   23   31 1   
    29   24   25 1   
    30   24   32 1   
    31   24   33 1   
    32   25   26 1   
    33   25   34 1   
    34   25   35 1   
    35   26   27 1   
    36   26   36 1   
    37   26   37 1   
    38   27   38 1   
    39   27   39 1   
    40   27   40 1   
    41   41   42 1   
    42   41   49 1   
    43   42   43 1   
    44   42   45 1   
    45   42   50 1   
    46   43   44 2   
    47   43   53 1   
    48   45   46 1   
    49   45   51 1   
    50   45   52 1   
    51   46   47 1   
    52   46   48 1   
    53   53   54 1   
    54   53   57 1   
    55   54   55 1   
    56   54   58 1   
    57   54   59 1   
    58   55   56 2   
    59   55   60 1   
    60   60   61 1   
    61   60   68 1   
    62   61   62 1   
    63   61   64 1   
    64   61   69 1   
    65   62   63 2   
    66   62   74 1   
    67   64   65 1   
    68   64   70 1   
    69   64   71 1   
    70   65   66 1   
    71   65   67 2   
    72   66   72 1   
    73   66   73 1   
    74   74   75 1   
    75   74   78 1   
    76   75   76 1   
    77   75   79 1   
    78   75   80 1   
    79   76   77 2   
    80   76   81 1   
    81   81   82 1   
    82   81   93 1   
    83   82   83 1   
    84   82   85 1   
    85   82   94 1   
    86   83   84 2   
    87   83  102 1   
    88   85   86 1   
    89   85   95 1   
    90   85   96 1   
    91   86   87 ar  
    92   86   88 ar  
    93   87   89 ar  
    94   87   97 1   
    95   88   90 ar  
    96   88   98 1   
    97   89   91 ar  
    98   89   99 1   
    99   90   91 ar  
   100   90  100 1   
   101   91   92 1   
   102   92  101 1   
   103  102  103 1   
   104  102  110 1   
   105  103  104 1   
   106  103  106 1   
   107  103  111 1   
   108  104  105 2   
   109  104  121 1   
   110  106  107 1   
   111  106  108 1   
   112  106  112 1   
   113  107  109 1   
   114  107  113 1   
   115  107  114 1   
   116  108  115 1   
   117  108  116 1   
   118  108  117 1   
   119  109  118 1   
   120  109  119 1   
   121  109  120 1   
   122  121  122 1   
   123  121  127 1   
   124  122  123 1   
   125  122  125 1   
   126  122  128 1   
   127  123  124 2   
   128  123  132 1   
   129  125  126 1   
   130  125  129 1   
   131  125  130 1   
   132  126  131 1   
   133  132  133 1   
   134  132  137 1   
   135  133  134 1   
   136  133  136 1   
   137  133  138 1   
   138  134  135 2   
   139  134  142 1   
   140  136  139 1   
   141  136  140 1   
   142  136  141 1   
   143  142  143 1   
   144  142  147 1   
   145  143  144 1   
   146  143  146 1   
   147  143  148 1   
   148  144  145 2   
   149  144  152 1   
   150  146  149 1   
   151  146  150 1   
   152  146  151 1   
   153  152  153 1   
   154  152  161 1   
   155  153  154 1   
   156  153  156 1   
   157  153  162 1   
   158  154  155 2   
   159  154  167 1   
   160  156  157 1   
   161  156  163 1   
   162  156  164 1   
   163  157  158 1   
   164  157  165 1   
   165  157  166 1   
   166  158  159 1   
   167  158  160 1   
   168  167  168 1   
   169  167  172 1   
   170  168  169 1   
   171  168  170 1   
   172  168  171 1   
   173  174  175 1   
   174  174  176 1   
   175  177  178 1   
   176  177  179 1   
   177  180  181 1   
   178  180  182 1   
   179  183  184 1   
   180  183  185 1   
@<TRIPOS>SUBSTRUCTURE
     1 MOL         1 TEMP              0 ****  ****    0 ROOT
