@<TRIPOS>MOLECULE
MOL
  181   177     1     0     0
SMALL
resp


@<TRIPOS>ATOM
      1 C1         -4.0270    6.9150    3.4600 c3        1 MOL     -0.200355
      2 C2         -3.2520    5.6940    2.9100 c         1 MOL      0.698276
      3 O1         -2.1870    5.3170    3.4280 o         1 MOL     -0.564318
      4 H1         -3.9810    6.9130    4.5490 hc        1 MOL      0.041445
      5 H2         -3.5790    7.8330    3.0790 hc        1 MOL      0.041445
      6 H3         -5.0680    6.8600    3.1410 hc        1 MOL      0.041445
      7 N1         -3.7950    4.8770    1.9370 n         1 MOL     -0.702247
      8 C3         -5.1630    5.0360    1.3630 c3        1 MOL      0.399980
      9 C4         -5.0420    4.7120   -0.1510 c         1 MOL      0.234498
     10 O2         -3.9680    4.1970   -0.6200 o         1 MOL     -0.326124
     11 C5         -6.2800    4.2780    2.1420 c3        1 MOL     -0.251046
     12 C6         -6.2560    2.7250    2.0440 c         1 MOL      0.720937
     13 O3         -6.0230    1.9310    3.0220 o         1 MOL     -0.747127
     14 O4         -6.5010    2.2180    0.9400 o         1 MOL     -0.747127
     15 H4         -3.2150    4.1170    1.6010 hn        1 MOL      0.398154
     16 H5         -5.4170    6.0830    1.4690 h1        1 MOL     -0.010672
     17 H6         -7.2490    4.5820    1.7430 hc        1 MOL      0.036336
     18 H7         -6.3440    4.5080    3.2030 hc        1 MOL      0.036336
     19 N2         -6.1190    4.9270   -0.8910 n         1 MOL     -0.444430
     20 C7         -6.2390    4.7620   -2.3610 c3        1 MOL      0.270083
     21 C8         -5.7830    3.4270   -2.9190 c         1 MOL      0.265656
     22 O5         -5.3380    3.3380   -4.1110 o         1 MOL     -0.504792
     23 C9         -5.4600    5.9460   -3.0340 c3        1 MOL     -0.192204
     24 H8         -6.8850    5.3460   -0.3910 hn        1 MOL      0.252998
     25 H9         -7.2720    4.8220   -2.7240 h1        1 MOL      0.014805
     26 H10        -4.4120    5.9520   -2.7390 hc        1 MOL      0.062310
     27 H11        -5.5520    5.9170   -4.1170 hc        1 MOL      0.062310
     28 H12        -5.9570    6.8690   -2.7730 hc        1 MOL      0.062310
     29 N3         -5.8270    2.2730   -2.2120 n         1 MOL     -0.072093
     30 C10        -5.4530    0.9990   -2.7050 c3        1 MOL     -0.028817
     31 C11        -6.3020   -0.1980   -2.2950 c         1 MOL      0.314742
     32 O6         -6.8720   -0.3010   -1.2200 o         1 MOL     -0.436134
     33 C12        -3.9490    0.8020   -2.4490 c3        1 MOL      0.073207
     34 C13        -3.3360    0.8950   -1.0170 c         1 MOL      0.540944
     35 O7         -2.2350    1.4230   -0.8500 o         1 MOL     -0.631365
     36 O8         -3.9330    0.4100   -0.0050 o         1 MOL     -0.631365
     37 H13        -6.3840    2.2710   -1.3750 hn        1 MOL      0.151484
     38 H14        -5.5930    1.0030   -3.7910 h1        1 MOL      0.015211
     39 H15        -3.3570    1.3970   -3.1500 hc        1 MOL      0.003320
     40 H16        -3.6710   -0.2250   -2.6910 hc        1 MOL      0.003320
     41 N4         -6.4080   -1.1860   -3.1680 n         1 MOL     -0.209077
     42 C14        -7.2030   -2.4330   -2.9660 c3        1 MOL     -0.529246
     43 C15        -6.7150   -3.4490   -1.8970 c         1 MOL      0.684446
     44 O9         -7.4630   -4.1580   -1.2930 o         1 MOL     -0.573953
     45 H17        -5.8150   -1.0980   -3.9780 hn        1 MOL      0.262210
     46 H18        -7.2870   -2.9290   -3.9320 h1        1 MOL      0.210228
     47 H19        -8.2470   -2.1390   -2.8360 h1        1 MOL      0.210228
     48 N5         -5.3780   -3.4360   -1.5730 n         1 MOL     -0.571635
     49 C16        -4.7010   -4.3120   -0.6500 c3        1 MOL      0.146158
     50 C17        -3.9730   -3.4860    0.5160 c         1 MOL      0.382293
     51 O10        -4.4000   -2.3580    0.7930 o         1 MOL     -0.479104
     52 C18        -3.8690   -5.2120   -1.4940 c3        1 MOL      0.050666
     53 C19        -3.5130   -6.5290   -0.7990 c         1 MOL      0.476672
     54 N6         -4.1320   -7.6700   -1.2210 n         1 MOL     -0.715637
     55 O11        -2.6060   -6.5920    0.0230 o         1 MOL     -0.461830
     56 H20        -4.7500   -2.7860   -2.0200 hn        1 MOL      0.325550
     57 H21        -5.4980   -4.8430   -0.1370 h1        1 MOL      0.047764
     58 H22        -2.9620   -4.6810   -1.7870 hc        1 MOL      0.023127
     59 H23        -4.3100   -5.4320   -2.4730 hc        1 MOL      0.023127
     60 H24        -4.8600   -7.7250   -1.9180 hn        1 MOL      0.349141
     61 H25        -3.8960   -8.4560   -0.6230 hn        1 MOL      0.349141
     62 N7         -2.9680   -4.0540    1.1680 n         1 MOL     -0.206418
     63 C20        -2.1840   -3.4240    2.2510 c3        1 MOL     -0.190066
     64 C21        -1.4520   -2.0740    1.8950 c         1 MOL      0.537070
     65 O12        -1.4610   -1.1360    2.6930 o         1 MOL     -0.518648
     66 H26        -2.8300   -5.0370    0.9930 hn        1 MOL      0.168639
     67 H27        -1.3380   -4.0820    2.4550 h1        1 MOL      0.115786
     68 H28        -2.8140   -3.2490    3.1270 h1        1 MOL      0.115786
     69 N8         -0.8770   -2.0020    0.6850 n         1 MOL     -0.463351
     70 C22        -0.3850   -3.0740   -0.2030 c3        1 MOL      0.057140
     71 C23         0.7980   -3.8380    0.3610 c         1 MOL      0.101455
     72 O13         0.8350   -5.0940    0.4510 o         1 MOL     -0.457714
     73 C24         0.0030   -2.3880   -1.5270 c3        1 MOL      0.433563
     74 C25         0.3310   -3.4370   -2.5900 c3        1 MOL     -0.314370
     75 O14        -1.0650   -1.6160   -2.0670 oh        1 MOL     -0.578181
     76 H29        -0.6110   -1.0580    0.4360 hn        1 MOL      0.339276
     77 H30        -1.1600   -3.7710   -0.5260 h1        1 MOL      0.076663
     78 H31         0.8560   -1.7240   -1.3770 h1        1 MOL     -0.020803
     79 H32        -0.7560   -0.7370   -1.8530 ho        1 MOL      0.361062
     80 H33        -0.3460   -4.2910   -2.5260 hc        1 MOL      0.074930
     81 H34         0.2330   -2.9470   -3.5570 hc        1 MOL      0.074930
     82 H35         1.3850   -3.7280   -2.5680 hc        1 MOL      0.074930
     83 N9          1.7300   -3.0950    0.9360 n         1 MOL      0.026838
     84 C26         3.0640   -3.6020    1.4570 c3        1 MOL      0.234294
     85 C27         3.7710   -4.3470    0.3050 c         1 MOL      0.458358
     86 O15         3.8990   -5.5730    0.3240 o         1 MOL     -0.533228
     87 C28         2.9570   -4.3720    2.8540 c3        1 MOL      0.114149
     88 C29         2.1190   -3.5770    3.8700 c3        1 MOL      0.051062
     89 C30         4.3500   -4.7390    3.3770 c3        1 MOL     -0.112271
     90 C31         2.4780   -2.1840    4.3350 c3        1 MOL     -0.191687
     91 H36         1.5280   -2.1070    0.9320 hn        1 MOL      0.106313
     92 H37         3.6430   -2.7100    1.6740 h1        1 MOL     -0.023525
     93 H38         2.4100   -5.2800    2.6260 hc        1 MOL     -0.011277
     94 H39         2.2010   -4.2050    4.7650 hc        1 MOL     -0.029985
     95 H40         1.0690   -3.5880    3.5990 hc        1 MOL     -0.029985
     96 H41         4.2230   -5.2580    4.3270 hc        1 MOL      0.010177
     97 H42         4.9410   -5.3060    2.6660 hc        1 MOL      0.010177
     98 H43         4.9610   -3.8640    3.6190 hc        1 MOL      0.010177
     99 H44         1.8900   -1.8330    5.1790 hc        1 MOL      0.049291
    100 H45         3.4830   -2.1980    4.7550 hc        1 MOL      0.049291
    101 H46         2.4020   -1.4300    3.5450 hc        1 MOL      0.049291
    102 N10         3.9330   -3.7700   -0.9310 n         1 MOL     -0.500509
    103 C32         4.1070   -2.3600   -1.2770 c3        1 MOL      0.259708
    104 C33         4.9900   -1.5260   -0.3550 c         1 MOL      0.264817
    105 O16         4.3780   -0.8320    0.5040 o         1 MOL     -0.502929
    106 C34         4.6290   -2.2020   -2.7660 c3        1 MOL     -0.354038
    107 C35         5.9000   -2.9360   -3.1460 c         1 MOL      0.724914
    108 O17         6.1880   -2.9450   -4.4370 o         1 MOL     -0.710528
    109 O18         6.6440   -3.5080   -2.3080 o         1 MOL     -0.710528
    110 H47         4.1370   -4.4220   -1.6770 hn        1 MOL      0.329505
    111 H48         3.1860   -1.7810   -1.1670 h1        1 MOL     -0.008775
    112 H49         4.7400   -1.1530   -3.0460 hc        1 MOL      0.089840
    113 H50         3.8800   -2.6830   -3.4000 hc        1 MOL      0.089840
    114 N11         6.2990   -1.5200   -0.4900 n         1 MOL     -0.259210
    115 C36         7.1800   -0.4620   -0.1310 c3        1 MOL      0.322375
    116 C37         7.8500    0.1900   -1.3350 c         1 MOL      0.364556
    117 O19         8.5350   -0.5510   -2.0610 o         1 MOL     -0.498916
    118 C38         8.1710   -1.0700    0.9390 c3        1 MOL     -0.362466
    119 C39         9.1360   -0.0040    1.4990 ca        1 MOL      0.086295
    120 C40        10.3760    0.2590    0.8830 ca        1 MOL     -0.127322
    121 C41         8.8510    0.8990    2.5660 ca        1 MOL     -0.127322
    122 C42        11.3300    1.1210    1.3540 ca        1 MOL     -0.148541
    123 C43         9.8180    1.7710    3.1290 ca        1 MOL     -0.148541
    124 C44        11.0600    1.8130    2.5360 ca        1 MOL     -0.103867
    125 H51         6.7840   -2.2280   -1.0370 hn        1 MOL      0.243776
    126 H52         6.4910    0.2820    0.2840 h1        1 MOL     -0.077245
    127 H53         8.7160   -1.9210    0.5560 hc        1 MOL      0.137229
    128 H54         7.5400   -1.4680    1.7340 hc        1 MOL      0.137229
    129 H55        10.6790   -0.3250    0.0110 ha        1 MOL      0.098800
    130 H56         7.9050    0.7540    3.0620 ha        1 MOL      0.098800
    131 H57        12.2050    1.3640    0.7730 ha        1 MOL      0.113594
    132 H58         9.5790    2.4410    3.9460 ha        1 MOL      0.113594
    133 H59        11.8190    2.4810    2.9070 ha        1 MOL      0.080312
    134 N12         7.5790    1.4630   -1.6930 n         1 MOL     -0.123247
    135 C45         6.9530    2.4470   -0.9200 c3        1 MOL      0.203320
    136 C46         5.4190    2.2280   -0.7050 c         1 MOL      0.348435
    137 O20         4.8710    1.3520   -1.3470 o         1 MOL     -0.465147
    138 C47         7.0970    3.8070   -1.6410 c3        1 MOL      0.017094
    139 C48         8.3540    3.5580   -2.4280 c3        1 MOL     -0.210674
    140 C49         8.1340    2.0500   -2.8580 c3        1 MOL      0.071324
    141 H60         7.5030    2.6360    0.0040 h1        1 MOL     -0.033263
    142 H61         6.2260    4.0150   -2.2570 hc        1 MOL      0.015846
    143 H62         7.1950    4.6170   -0.9220 hc        1 MOL      0.015846
    144 H63         8.3790    4.2550   -3.2590 hc        1 MOL      0.051965
    145 H64         9.1570    3.5750   -1.6960 hc        1 MOL      0.051965
    146 H65         7.3430    1.9780   -3.6030 h1        1 MOL      0.051245
    147 H66         9.0440    1.5700   -3.2220 h1        1 MOL      0.051245
    148 N13         4.7930    3.1430    0.0380 n         1 MOL     -0.249131
    149 C50         3.3650    3.0750    0.3670 c3        1 MOL      0.104378
    150 C51         2.9660    3.8350    1.6310 c         1 MOL      0.356631
    151 O21         1.9380    4.5320    1.6890 o         1 MOL     -0.481185
    152 C52         2.4360    3.4720   -0.8510 c3        1 MOL     -0.049684
    153 C53         2.8260    4.8730   -1.3110 c3        1 MOL      0.244222
    154 C54         2.0890    5.2190   -2.5630 c         1 MOL      0.634879
    155 O22         1.0190    4.6480   -2.8680 o         1 MOL     -0.711699
    156 O23         2.7610    5.9380   -3.3300 o         1 MOL     -0.711699
    157 H67         5.4180    3.7340    0.5730 hn        1 MOL      0.205952
    158 H68         3.0900    2.0440    0.5840 h1        1 MOL      0.050674
    159 H69         1.3650    3.4370   -0.6390 hc        1 MOL      0.049278
    160 H70         2.5770    2.7500   -1.6580 hc        1 MOL      0.049278
    161 H71         3.9060    4.9830   -1.4160 hc        1 MOL     -0.139615
    162 H72         2.4840    5.6130   -0.5810 hc        1 MOL     -0.139615
    163 N14         3.6520    3.6490    2.7570 n         1 MOL     -0.298718
    164 C55         4.6910    2.6580    3.0900 c3        1 MOL     -0.009490
    165 H73         5.5930    2.8720    2.5180 h1        1 MOL      0.027429
    166 H74         4.9150    2.7110    4.1560 h1        1 MOL      0.027429
    167 H75         4.3330    1.6590    2.8430 h1        1 MOL      0.027429
    168 H76         3.3070    4.2720    3.4680 hn        1 MOL      0.230514
    169 Ca1        -5.9090   -0.2550    1.5340 Ca        1 MOL      1.699371
    170 O24        -3.9240   -0.4950    3.2210 oh        1 MOL     -0.833064
    171 H77        -4.1720   -0.3380    4.1310 ho        1 MOL      0.398060
    172 H78        -2.9790   -0.5750    3.2380 ho        1 MOL      0.398060
    173 O25        -7.4420   -2.4680    0.9560 oh        1 MOL     -0.833064
    174 H79        -8.2940   -2.2660    1.3360 ho        1 MOL      0.398060
    175 H80        -7.6060   -3.2200    0.3870 ho        1 MOL      0.398060
    176 O26        -8.6660    0.0630    1.7210 oh        1 MOL     -0.833064
    177 H81        -8.8680    0.6660    2.4330 ho        1 MOL      0.398060
    178 H82        -9.4790    0.0140    1.2120 ho        1 MOL      0.398060
    179 O27        -6.8740   -1.3180    3.8060 oh        1 MOL     -0.833064
    180 H83        -7.2480   -2.1800    3.9730 ho        1 MOL      0.398060
    181 H84        -7.1000   -0.8010    4.5860 ho        1 MOL      0.398060
@<TRIPOS>BOND
     1    1    2 1   
     2    1    4 1   
     3    1    5 1   
     4    1    6 1   
     5    2    3 2   
     6    2    7 1   
     7    7    8 1   
     8    7   15 1   
     9    8    9 1   
    10    8   11 1   
    11    8   16 1   
    12    9   10 2   
    13    9   19 1   
    14   11   12 1   
    15   11   17 1   
    16   11   18 1   
    17   12   13 1   
    18   12   14 1   
    19   19   20 1   
    20   19   24 1   
    21   20   21 1   
    22   20   23 1   
    23   20   25 1   
    24   21   22 2   
    25   21   29 1   
    26   23   26 1   
    27   23   27 1   
    28   23   28 1   
    29   29   30 1   
    30   29   37 1   
    31   30   31 1   
    32   30   33 1   
    33   30   38 1   
    34   31   32 2   
    35   31   41 1   
    36   33   34 1   
    37   33   39 1   
    38   33   40 1   
    39   34   35 1   
    40   34   36 1   
    41   41   42 1   
    42   41   45 1   
    43   42   43 1   
    44   42   46 1   
    45   42   47 1   
    46   43   44 2   
    47   43   48 1   
    48   48   49 1   
    49   48   56 1   
    50   49   50 1   
    51   49   52 1   
    52   49   57 1   
    53   50   51 2   
    54   50   62 1   
    55   52   53 1   
    56   52   58 1   
    57   52   59 1   
    58   53   54 1   
    59   53   55 2   
    60   54   60 1   
    61   54   61 1   
    62   62   63 1   
    63   62   66 1   
    64   63   64 1   
    65   63   67 1   
    66   63   68 1   
    67   64   65 2   
    68   64   69 1   
    69   69   70 1   
    70   69   76 1   
    71   70   71 1   
    72   70   73 1   
    73   70   77 1   
    74   71   72 2   
    75   71   83 1   
    76   73   74 1   
    77   73   75 1   
    78   73   78 1   
    79   74   80 1   
    80   74   81 1   
    81   74   82 1   
    82   75   79 1   
    83   83   84 1   
    84   83   91 1   
    85   84   85 1   
    86   84   87 1   
    87   84   92 1   
    88   85   86 2   
    89   85  102 1   
    90   87   88 1   
    91   87   89 1   
    92   87   93 1   
    93   88   90 1   
    94   88   94 1   
    95   88   95 1   
    96   89   96 1   
    97   89   97 1   
    98   89   98 1   
    99   90   99 1   
   100   90  100 1   
   101   90  101 1   
   102  102  103 1   
   103  102  110 1   
   104  103  104 1   
   105  103  106 1   
   106  103  111 1   
   107  104  105 2   
   108  104  114 1   
   109  106  107 1   
   110  106  112 1   
   111  106  113 1   
   112  107  108 1   
   113  107  109 1   
   114  114  115 1   
   115  114  125 1   
   116  115  116 1   
   117  115  118 1   
   118  115  126 1   
   119  116  117 2   
   120  116  134 1   
   121  118  119 1   
   122  118  127 1   
   123  118  128 1   
   124  119  120 ar  
   125  119  121 ar  
   126  120  122 ar  
   127  120  129 1   
   128  121  123 ar  
   129  121  130 1   
   130  122  124 ar  
   131  122  131 1   
   132  123  124 ar  
   133  123  132 1   
   134  124  133 1   
   135  134  135 1   
   136  134  140 1   
   137  135  136 1   
   138  135  138 1   
   139  135  141 1   
   140  136  137 2   
   141  136  148 1   
   142  138  139 1   
   143  138  142 1   
   144  138  143 1   
   145  139  140 1   
   146  139  144 1   
   147  139  145 1   
   148  140  146 1   
   149  140  147 1   
   150  148  149 1   
   151  148  157 1   
   152  149  150 1   
   153  149  152 1   
   154  149  158 1   
   155  150  151 2   
   156  150  163 1   
   157  152  153 1   
   158  152  159 1   
   159  152  160 1   
   160  153  154 1   
   161  153  161 1   
   162  153  162 1   
   163  154  155 1   
   164  154  156 1   
   165  163  164 1   
   166  163  168 1   
   167  164  165 1   
   168  164  166 1   
   169  164  167 1   
   170  170  171 1   
   171  170  172 1   
   172  173  174 1   
   173  173  175 1   
   174  176  177 1   
   175  176  178 1   
   176  179  180 1   
   177  179  181 1   
@<TRIPOS>SUBSTRUCTURE
     1 MOL         1 TEMP              0 ****  ****    0 ROOT
