@<TRIPOS>MOLECULE
MOL
  192   187     1     0     0
SMALL
resp


@<TRIPOS>ATOM
      1 C1          4.4510   -1.9240   -2.5440 c3        1 MOL     -0.496860
      2 C2          3.4890   -2.7750   -1.6640 c         1 MOL      0.699784
      3 O1          2.3900   -2.3940   -1.3400 o         1 MOL     -0.552042
      4 H1          5.3640   -2.4880   -2.7330 hc        1 MOL      0.115581
      5 H2          3.9670   -1.6900   -3.4920 hc        1 MOL      0.115581
      6 H3          4.6980   -0.9980   -2.0240 hc        1 MOL      0.115581
      7 N1          4.0010   -3.8910   -1.2260 n         1 MOL     -0.293312
      8 C3          3.2960   -4.8600   -0.3680 c3        1 MOL     -0.325211
      9 C4          1.8070   -5.0580   -0.6720 c         1 MOL      0.964775
     10 O2          0.9990   -5.3800    0.2550 o         1 MOL     -0.584807
     11 C5          3.5730   -4.5830    1.0610 c3        1 MOL     -0.411080
     12 C6          5.1010   -4.6090    1.2970 c         1 MOL      0.989579
     13 O3          5.6280   -3.8880    2.2130 o         1 MOL     -0.773159
     14 O4          5.8560   -5.4560    0.7830 o         1 MOL     -0.773159
     15 H4          4.9310   -4.1170   -1.5560 hn        1 MOL      0.162594
     16 H5          3.7570   -5.8070   -0.6520 h1        1 MOL      0.133083
     17 H6          3.0030   -5.1690    1.7760 hc        1 MOL      0.142487
     18 H7          3.2800   -3.5470    1.2280 hc        1 MOL      0.142487
     19 N2          1.3320   -5.1030   -1.9350 n         1 MOL     -0.818981
     20 C7         -0.1260   -4.9190   -2.2110 c3        1 MOL     -0.008007
     21 C8         -0.8970   -6.1730   -1.8960 c         1 MOL      0.614747
     22 O5         -0.3840   -7.2990   -2.1120 o         1 MOL     -0.609077
     23 C9         -0.4720   -4.3820   -3.6060 c3        1 MOL      0.086608
     24 C10         0.0760   -5.3570   -4.7580 c3        1 MOL      0.220862
     25 C11         0.3510   -3.0540   -3.7380 c3        1 MOL     -0.138557
     26 C12        -0.5300   -4.9210   -6.0750 c3        1 MOL     -0.219929
     27 H8          1.9850   -4.8150   -2.6430 hn        1 MOL      0.361381
     28 H9         -0.3990   -4.1990   -1.4380 h1        1 MOL      0.121244
     29 H10        -1.5620   -4.2940   -3.6850 hc        1 MOL      0.056119
     30 H11        -0.1970   -6.3930   -4.5530 hc        1 MOL     -0.038747
     31 H12         1.1630   -5.3830   -4.8130 hc        1 MOL     -0.038747
     32 H13         1.4140   -3.2510   -3.7190 hc        1 MOL      0.022170
     33 H14         0.1620   -2.6010   -4.7100 hc        1 MOL      0.022170
     34 H15         0.0000   -2.3110   -3.0220 hc        1 MOL      0.022170
     35 H16        -1.6130   -4.8350   -5.9370 hc        1 MOL      0.029777
     36 H17        -0.0490   -3.9660   -6.2860 hc        1 MOL      0.029777
     37 H18        -0.1800   -5.6050   -6.8410 hc        1 MOL      0.029777
     38 N3         -2.1340   -6.1570   -1.4610 n         1 MOL     -0.455116
     39 C13        -3.1180   -5.0580   -1.4830 c3        1 MOL      0.042942
     40 C14        -4.0220   -5.0730   -0.2900 c         1 MOL      0.646388
     41 O6         -4.0570   -6.0840    0.4370 o         1 MOL     -0.585737
     42 C15        -3.9450   -5.1440   -2.7290 c3        1 MOL     -0.287647
     43 C16        -4.7070   -3.8640   -3.1440 c         1 MOL      0.704050
     44 O7         -4.4260   -2.7730   -2.6530 o         1 MOL     -0.708065
     45 O8         -5.7700   -4.0140   -3.8050 o         1 MOL     -0.708065
     46 H19        -2.5030   -7.0630   -1.2220 hn        1 MOL      0.293211
     47 H20        -2.6660   -4.0680   -1.5260 h1        1 MOL     -0.025145
     48 H21        -4.6220   -5.9960   -2.6760 hc        1 MOL      0.068600
     49 H22        -3.2550   -5.4110   -3.5260 hc        1 MOL      0.068600
     50 N4         -4.5190   -3.9250    0.1570 n         1 MOL     -0.443986
     51 C17        -5.3040   -3.7340    1.4560 c3        1 MOL     -0.104054
     52 C18        -6.7980   -3.3290    1.3300 c         1 MOL      0.646659
     53 O9         -7.4380   -3.6700    0.3500 o         1 MOL     -0.547300
     54 H23        -4.4200   -3.2080   -0.5500 hn        1 MOL      0.293677
     55 H24        -4.7990   -2.9050    1.9560 h1        1 MOL      0.098782
     56 H25        -5.2970   -4.6230    2.0820 h1        1 MOL      0.098782
     57 N5         -7.3110   -2.4970    2.2570 n         1 MOL     -0.483666
     58 C19        -8.6550   -1.9860    2.3180 c3        1 MOL     -0.013987
     59 C20        -8.9770   -0.9080    1.2490 c         1 MOL      0.478977
     60 O10        -9.8620   -0.0950    1.3410 o         1 MOL     -0.527725
     61 C21        -8.9020   -1.4490    3.7470 c3        1 MOL     -0.114639
     62 C22        -8.3350   -2.3790    4.8500 c         1 MOL      0.707622
     63 O11        -7.0970   -2.2680    5.0910 o         1 MOL     -0.711857
     64 O12        -9.1210   -3.1680    5.5020 o         1 MOL     -0.711857
     65 H26        -6.6360   -2.1690    2.9290 hn        1 MOL      0.244165
     66 H27        -9.3320   -2.8070    2.0970 h1        1 MOL      0.096740
     67 H28        -9.9550   -1.2830    3.9600 hc        1 MOL      0.015433
     68 H29        -8.4790   -0.4460    3.8440 hc        1 MOL      0.015433
     69 N6         -8.1300   -0.8900    0.2040 n         1 MOL     -0.261176
     70 C23        -8.3480   -0.0750   -1.0150 c3        1 MOL     -0.303276
     71 C24        -7.9800    1.3630   -0.7960 c         1 MOL      0.547053
     72 O13        -8.6470    2.1940   -1.4020 o         1 MOL     -0.556715
     73 H30        -7.6820   -1.7860    0.0820 hn        1 MOL      0.251585
     74 H31        -9.3670   -0.1450   -1.3970 h1        1 MOL      0.160079
     75 H32        -7.6080   -0.5070   -1.7040 h1        1 MOL      0.160079
     76 N7         -7.0460    1.6260    0.1060 n         1 MOL     -0.166958
     77 C25        -6.7110    2.9320    0.6750 c3        1 MOL     -0.009762
     78 C26        -6.2540    4.1260   -0.1590 c         1 MOL      0.372124
     79 O14        -6.1710    5.3150    0.2380 o         1 MOL     -0.508725
     80 C27        -7.6400    3.2690    1.8920 c3        1 MOL     -0.029209
     81 C28        -7.5170    2.2210    3.0970 c3        1 MOL     -0.155933
     82 C29        -8.7790    2.2670    4.0110 c         1 MOL      0.636446
     83 N8         -9.9360    1.7980    3.5890 n         1 MOL     -0.817972
     84 O15        -8.7420    2.6150    5.2060 o         1 MOL     -0.586310
     85 H33        -6.4820    0.8540    0.4150 hn        1 MOL      0.153044
     86 H34        -5.7750    2.7210    1.1840 h1        1 MOL      0.105620
     87 H35        -8.6740    3.3780    1.5790 hc        1 MOL      0.036056
     88 H36        -7.3250    4.2190    2.3140 hc        1 MOL      0.036056
     89 H37        -6.7500    2.5500    3.7890 hc        1 MOL      0.056597
     90 H38        -7.4270    1.2260    2.6800 hc        1 MOL      0.056597
     91 H39        -9.9470    1.4570    2.6470 hn        1 MOL      0.382301
     92 H40       -10.6650    1.6760    4.2890 hn        1 MOL      0.382301
     93 N9         -5.7290    3.7840   -1.3530 n         1 MOL     -0.037103
     94 C30        -5.1040    4.6530   -2.3320 c3        1 MOL     -0.183365
     95 C31        -3.5210    4.6670   -2.3550 c         1 MOL      0.503355
     96 O16        -2.8670    5.5170   -3.0260 o         1 MOL     -0.547767
     97 C32        -5.6200    4.4880   -3.7540 c3        1 MOL      0.459373
     98 C33        -5.3490    3.1210   -4.2800 c3        1 MOL     -0.408884
     99 C34        -7.1150    4.7270   -3.8330 c3        1 MOL     -0.408884
    100 H41        -5.9110    2.8350   -1.6500 hn        1 MOL      0.036290
    101 H42        -5.4150    5.6500   -2.0400 h1        1 MOL      0.095704
    102 H43        -5.0660    5.1940   -4.3590 hc        1 MOL     -0.069659
    103 H44        -5.6000    3.0610   -5.3440 hc        1 MOL      0.093301
    104 H45        -4.3450    2.7610   -4.0770 hc        1 MOL      0.093301
    105 H46        -5.9770    2.4520   -3.7050 hc        1 MOL      0.093301
    106 H47        -7.4550    4.5350   -4.8560 hc        1 MOL      0.093301
    107 H48        -7.5160    4.0400   -3.0910 hc        1 MOL      0.093301
    108 H49        -7.3010    5.7570   -3.5240 hc        1 MOL      0.093301
    109 N10        -2.8540    3.8100   -1.5470 n         1 MOL     -0.351472
    110 C35        -1.4640    3.4910   -1.7740 c3        1 MOL      0.151267
    111 C36        -0.6470    3.7210   -0.5170 c         1 MOL      0.491278
    112 O17        -1.1850    3.8440    0.6200 o         1 MOL     -0.523717
    113 C37        -1.4220    2.0250   -2.3340 c3        1 MOL     -0.187682
    114 C38        -0.1600    1.6590   -3.0220 c         1 MOL      0.750525
    115 N11        -0.0320    0.4300   -3.4840 n         1 MOL     -0.882476
    116 O18         0.7030    2.5060   -3.2650 o         1 MOL     -0.570155
    117 H50        -3.3320    3.4300   -0.7410 hn        1 MOL      0.190327
    118 H51        -1.1140    3.9790   -2.6810 h1        1 MOL      0.065809
    119 H52        -2.2110    1.8970   -3.0740 hc        1 MOL      0.058125
    120 H53        -1.6040    1.3200   -1.5270 hc        1 MOL      0.058125
    121 H54        -0.7540   -0.2320   -3.2310 hn        1 MOL      0.387443
    122 H55         0.7320    0.1700   -4.0920 hn        1 MOL      0.387443
    123 N12         0.6620    3.7610   -0.6760 n         1 MOL     -0.446483
    124 C39         1.6870    3.7820    0.3980 c3        1 MOL      0.070273
    125 C40         3.0580    4.2380   -0.2360 c         1 MOL      0.584207
    126 O19         3.3370    4.1000   -1.4230 o         1 MOL     -0.552531
    127 C41         1.8550    2.3930    0.9710 c3        1 MOL     -0.229946
    128 C42         2.5280    2.2190    2.3870 ca        1 MOL      0.014736
    129 C43         3.8210    1.8410    2.4840 ca        1 MOL     -0.072199
    130 C44         1.7400    2.4180    3.5300 ca        1 MOL     -0.072199
    131 C45         4.3710    1.6140    3.7510 ca        1 MOL     -0.319374
    132 C46         2.3590    2.4380    4.8150 ca        1 MOL     -0.319374
    133 C47         3.6910    2.0200    4.9290 ca        1 MOL      0.368985
    134 O20         4.2230    1.8940    6.2050 oh        1 MOL     -0.508859
    135 H56         1.0070    3.8430   -1.6230 hn        1 MOL      0.258464
    136 H57         1.4040    4.4790    1.1880 h1        1 MOL      0.066679
    137 H58         2.2320    1.6500    0.2700 hc        1 MOL      0.110194
    138 H59         0.8440    1.9900    1.0230 hc        1 MOL      0.110194
    139 H60         4.3470    1.5330    1.5970 ha        1 MOL      0.115590
    140 H61         0.7160    2.6080    3.2640 ha        1 MOL      0.115590
    141 H62         5.3870    1.2350    3.7880 ha        1 MOL      0.168560
    142 H63         1.8300    2.5580    5.7520 ha        1 MOL      0.168560
    143 H64         5.1210    1.5960    6.0290 ho        1 MOL      0.363478
    144 N13         3.9390    4.8150    0.5890 n         1 MOL     -0.478430
    145 C48         5.3570    5.0780    0.2540 c3        1 MOL      0.260290
    146 C49         6.1470    4.2180    1.1890 c         1 MOL      0.372073
    147 O21         6.1760    4.4670    2.3600 o         1 MOL     -0.534590
    148 C50         5.6630    6.5730    0.3960 c3        1 MOL      0.025358
    149 C51         4.6900    7.5350   -0.3460 c3        1 MOL     -0.156703
    150 C52         5.1380    8.9140   -0.1370 c         1 MOL      0.692604
    151 O22         4.8480    9.5230    0.9170 o         1 MOL     -0.675166
    152 O23         5.8490    9.5030   -1.0000 o         1 MOL     -0.675166
    153 H65         3.6350    4.9580    1.5430 hn        1 MOL      0.296134
    154 H66         5.4470    4.8040   -0.7940 h1        1 MOL      0.058647
    155 H67         6.6210    6.8120   -0.0550 hc        1 MOL      0.011416
    156 H68         5.6360    6.8580    1.4490 hc        1 MOL      0.011416
    157 H69         3.6670    7.3290   -0.0100 hc        1 MOL      0.009539
    158 H70         4.6490    7.2910   -1.4000 hc        1 MOL      0.009539
    159 N14         6.5850    3.0220    0.7840 n         1 MOL     -0.316712
    160 C53         6.4530    2.4420   -0.5390 c3        1 MOL     -0.197107
    161 C54         7.2310    3.3450   -1.5910 c         1 MOL      0.568516
    162 O24         7.9920    4.2210   -1.1700 o         1 MOL     -0.526912
    163 C55         7.0010    1.0390   -0.3970 c3        1 MOL     -0.029965
    164 C56         6.3040    0.0040    0.6460 c3        1 MOL      0.153113
    165 C57         7.1300   -1.2960    0.6540 c         1 MOL      0.355323
    166 O25         6.7910   -2.1990   -0.1440 o         1 MOL     -0.613296
    167 O26         7.9660   -1.5200    1.5620 o         1 MOL     -0.613296
    168 H71         7.0370    2.3980    1.4300 hn        1 MOL      0.272780
    169 H72         5.4150    2.3370   -0.8700 h1        1 MOL      0.089603
    170 H73         8.0810    1.0210   -0.2030 hc        1 MOL      0.016543
    171 H74         6.7740    0.5020   -1.3200 hc        1 MOL      0.016543
    172 H75         5.2350   -0.1730    0.4690 hc        1 MOL     -0.017989
    173 H76         6.2700    0.4400    1.6460 hc        1 MOL     -0.017989
    174 N15         6.9090    3.2370   -2.8390 n         1 MOL     -0.362842
    175 C58         7.5190    4.1150   -3.9000 c3        1 MOL     -0.205149
    176 H77         8.4830    3.7050   -4.2000 h1        1 MOL      0.105978
    177 H78         6.8560    4.1570   -4.7640 h1        1 MOL      0.105978
    178 H79         7.6610    5.1200   -3.5030 h1        1 MOL      0.105978
    179 H80         6.1430    2.6650   -3.1400 hn        1 MOL      0.297670
    180 Ca1         8.0150   -4.0810    1.2850 Ca        1 MOL      1.661850
    181 O27         9.5430   -3.3830    3.4860 oh        1 MOL     -0.830227
    182 H81         9.2350   -2.6810    4.0410 ho        1 MOL      0.384913
    183 H82         9.9220   -4.0240    4.0890 ho        1 MOL      0.384913
    184 O28         9.5450   -6.2330    2.0080 oh        1 MOL     -0.830227
    185 H83         9.7330   -6.7540    2.7930 ho        1 MOL      0.384913
    186 H84        10.3490   -6.2920    1.4940 ho        1 MOL      0.384913
    187 O29        10.3390   -3.9890   -0.2040 oh        1 MOL     -0.830227
    188 H85        11.2080   -4.1370    0.1750 ho        1 MOL      0.384913
    189 H86        10.4940   -3.9170   -1.1450 ho        1 MOL      0.384913
    190 O30         7.4610   -5.2830    3.6400 oh        1 MOL     -0.830227
    191 H87         8.2910   -5.6270    3.9760 ho        1 MOL      0.384913
    192 H88         6.8170   -5.5400    4.3000 ho        1 MOL      0.384913
@<TRIPOS>BOND
     1    1    2 1   
     2    1    4 1   
     3    1    5 1   
     4    1    6 1   
     5    2    3 2   
     6    2    7 1   
     7    7    8 1   
     8    7   15 1   
     9    8    9 1   
    10    8   11 1   
    11    8   16 1   
    12    9   10 2   
    13    9   19 1   
    14   11   12 1   
    15   11   17 1   
    16   11   18 1   
    17   12   13 1   
    18   12   14 1   
    19   19   20 1   
    20   19   27 1   
    21   20   21 1   
    22   20   23 1   
    23   20   28 1   
    24   21   22 2   
    25   21   38 1   
    26   23   24 1   
    27   23   25 1   
    28   23   29 1   
    29   24   26 1   
    30   24   30 1   
    31   24   31 1   
    32   25   32 1   
    33   25   33 1   
    34   25   34 1   
    35   26   35 1   
    36   26   36 1   
    37   26   37 1   
    38   38   39 1   
    39   38   46 1   
    40   39   40 1   
    41   39   42 1   
    42   39   47 1   
    43   40   41 2   
    44   40   50 1   
    45   42   43 1   
    46   42   48 1   
    47   42   49 1   
    48   43   44 1   
    49   43   45 1   
    50   50   51 1   
    51   50   54 1   
    52   51   52 1   
    53   51   55 1   
    54   51   56 1   
    55   52   53 2   
    56   52   57 1   
    57   57   58 1   
    58   57   65 1   
    59   58   59 1   
    60   58   61 1   
    61   58   66 1   
    62   59   60 2   
    63   59   69 1   
    64   61   62 1   
    65   61   67 1   
    66   61   68 1   
    67   62   63 1   
    68   62   64 1   
    69   69   70 1   
    70   69   73 1   
    71   70   71 1   
    72   70   74 1   
    73   70   75 1   
    74   71   72 2   
    75   71   76 1   
    76   76   77 1   
    77   76   85 1   
    78   77   78 1   
    79   77   80 1   
    80   77   86 1   
    81   78   79 2   
    82   78   93 1   
    83   80   81 1   
    84   80   87 1   
    85   80   88 1   
    86   81   82 1   
    87   81   89 1   
    88   81   90 1   
    89   82   83 1   
    90   82   84 2   
    91   83   91 1   
    92   83   92 1   
    93   93   94 1   
    94   93  100 1   
    95   94   95 1   
    96   94   97 1   
    97   94  101 1   
    98   95   96 2   
    99   95  109 1   
   100   97   98 1   
   101   97   99 1   
   102   97  102 1   
   103   98  103 1   
   104   98  104 1   
   105   98  105 1   
   106   99  106 1   
   107   99  107 1   
   108   99  108 1   
   109  109  110 1   
   110  109  117 1   
   111  110  111 1   
   112  110  113 1   
   113  110  118 1   
   114  111  112 2   
   115  111  123 1   
   116  113  114 1   
   117  113  119 1   
   118  113  120 1   
   119  114  115 1   
   120  114  116 2   
   121  115  121 1   
   122  115  122 1   
   123  123  124 1   
   124  123  135 1   
   125  124  125 1   
   126  124  127 1   
   127  124  136 1   
   128  125  126 2   
   129  125  144 1   
   130  127  128 1   
   131  127  137 1   
   132  127  138 1   
   133  128  129 ar  
   134  128  130 ar  
   135  129  131 ar  
   136  129  139 1   
   137  130  132 ar  
   138  130  140 1   
   139  131  133 ar  
   140  131  141 1   
   141  132  133 ar  
   142  132  142 1   
   143  133  134 1   
   144  134  143 1   
   145  144  145 1   
   146  144  153 1   
   147  145  146 1   
   148  145  148 1   
   149  145  154 1   
   150  146  147 2   
   151  146  159 1   
   152  148  149 1   
   153  148  155 1   
   154  148  156 1   
   155  149  150 1   
   156  149  157 1   
   157  149  158 1   
   158  150  151 1   
   159  150  152 1   
   160  159  160 1   
   161  159  168 1   
   162  160  161 1   
   163  160  163 1   
   164  160  169 1   
   165  161  162 2   
   166  161  174 1   
   167  163  164 1   
   168  163  170 1   
   169  163  171 1   
   170  164  165 1   
   171  164  172 1   
   172  164  173 1   
   173  165  166 1   
   174  165  167 1   
   175  174  175 1   
   176  174  179 1   
   177  175  176 1   
   178  175  177 1   
   179  175  178 1   
   180  181  182 1   
   181  181  183 1   
   182  184  185 1   
   183  184  186 1   
   184  187  188 1   
   185  187  189 1   
   186  190  191 1   
   187  190  192 1   
@<TRIPOS>SUBSTRUCTURE
     1 MOL         1 TEMP              0 ****  ****    0 ROOT
