@<TRIPOS>MOLECULE
MOL
  192   187     1     0     0
SMALL
resp


@<TRIPOS>ATOM
      1 C1         -5.4740    5.6370    3.3800 c3        1 MOL     -0.361187
      2 C2         -5.3130    4.3470    2.5500 c         1 MOL      0.567815
      3 O1         -4.8480    3.3010    3.0300 o         1 MOL     -0.532943
      4 H1         -4.5670    5.8110    3.9590 hc        1 MOL      0.106487
      5 H2         -5.6440    6.4800    2.7110 hc        1 MOL      0.106487
      6 H3         -6.3220    5.5310    4.0560 hc        1 MOL      0.106487
      7 N1         -5.3720    4.3690    1.2070 n         1 MOL     -0.473193
      8 C3         -5.0080    3.3110    0.2490 c3        1 MOL     -0.020773
      9 C4         -3.5100    2.8770    0.0930 c         1 MOL      0.325933
     10 O2         -3.2080    1.9370   -0.6610 o         1 MOL     -0.496461
     11 C5         -5.5840    3.5000   -1.1260 c3        1 MOL     -0.426118
     12 C6         -5.2820    4.8890   -1.6520 c         1 MOL      0.748704
     13 O3         -4.6410    4.9800   -2.7260 o         1 MOL     -0.709817
     14 O4         -5.7980    5.9210   -1.0990 o         1 MOL     -0.709817
     15 H4         -5.6600    5.2430    0.7780 hn        1 MOL      0.320050
     16 H5         -5.5320    2.4110    0.5780 h1        1 MOL      0.176160
     17 H6         -6.6390    3.2700   -1.0410 hc        1 MOL      0.131807
     18 H7         -5.2470    2.6860   -1.7800 hc        1 MOL      0.131807
     19 N2         -2.5820    3.6600    0.6600 n         1 MOL     -0.211400
     20 C7         -1.1540    3.5950    0.3900 c3        1 MOL      0.254575
     21 C8         -0.4600    3.1600    1.6850 c         1 MOL      0.421529
     22 O5         -0.8310    3.6320    2.7550 o         1 MOL     -0.518541
     23 C9         -0.6660    4.9120   -0.2210 c3        1 MOL     -0.335972
     24 C10        -1.3340    5.2910   -1.6010 c3        1 MOL      0.170773
     25 C11        -0.9080    6.5830   -2.2640 c3        1 MOL     -0.048918
     26 C12        -1.3500    6.9700   -3.7500 c3        1 MOL      0.105975
     27 N3         -2.8250    7.0100   -3.9180 n4        1 MOL     -0.299352
     28 H8         -2.9490    4.3480    1.3020 hn        1 MOL      0.230879
     29 H9         -1.0130    2.8230   -0.3620 h1        1 MOL      0.045394
     30 H10         0.3940    4.7590   -0.4230 hc        1 MOL      0.085529
     31 H11        -0.8750    5.6390    0.5620 hc        1 MOL      0.085529
     32 H12        -2.4180    5.3740   -1.5330 hc        1 MOL     -0.025640
     33 H13        -1.1700    4.4150   -2.2290 hc        1 MOL     -0.025640
     34 H14         0.1830    6.5040   -2.2740 hc        1 MOL      0.032140
     35 H15        -1.1950    7.3470   -1.5480 hc        1 MOL      0.032140
     36 H16        -0.9850    6.3090   -4.5310 hx        1 MOL      0.046314
     37 H17        -0.9010    7.9600   -3.9160 hx        1 MOL      0.046314
     38 H18        -3.2600    6.1280   -3.7010 hn        1 MOL      0.294941
     39 H19        -3.2420    7.7270   -3.3280 hn        1 MOL      0.294941
     40 H20        -3.0900    7.1560   -4.8760 hn        1 MOL      0.294941
     41 N4          0.5530    2.2660    1.6420 n         1 MOL     -0.339601
     42 C13         0.9780    1.3490    0.5300 c3        1 MOL     -0.042964
     43 C14         1.3120    2.1170   -0.8020 c         1 MOL      0.449338
     44 O6          0.6760    1.9460   -1.8170 o         1 MOL     -0.549702
     45 C15         0.1090    0.0620    0.4080 c3        1 MOL      0.278424
     46 C16        -0.3240   -0.6390    1.6400 c         1 MOL      0.465042
     47 O7         -1.5070   -0.9360    1.9330 o         1 MOL     -0.664841
     48 O8          0.5840   -0.9930    2.4650 o         1 MOL     -0.664841
     49 H21         0.9870    2.0930    2.5410 hn        1 MOL      0.246729
     50 H22         1.9010    0.9270    0.9310 h1        1 MOL      0.034932
     51 H23         0.5830   -0.6480   -0.2550 hc        1 MOL     -0.025001
     52 H24        -0.8440    0.3140   -0.0690 hc        1 MOL     -0.025001
     53 N5          2.3260    3.0460   -0.7300 n         1 MOL     -0.272985
     54 C17         3.2220    3.4150    0.3440 c3        1 MOL      0.018904
     55 C18         4.2600    4.4540   -0.1970 c         1 MOL      0.472942
     56 O9          4.0330    4.9790   -1.2790 o         1 MOL     -0.532504
     57 H25         2.5090    3.5760   -1.5640 hn        1 MOL      0.251138
     58 H26         3.7640    2.5300    0.6950 h1        1 MOL      0.027450
     59 H27         2.7030    3.8500    1.1870 h1        1 MOL      0.027450
     60 N6          5.3130    4.7710    0.5040 n         1 MOL     -0.357165
     61 C19         5.9810    4.2010    1.6920 c3        1 MOL     -0.024813
     62 C20         6.6420    2.8230    1.3200 c         1 MOL      0.578107
     63 O10         6.7070    2.4210    0.1880 o         1 MOL     -0.434563
     64 C21         7.1160    5.1970    2.1290 c3        1 MOL     -0.236300
     65 C22         8.1600    5.5490    1.0350 c         1 MOL      0.746286
     66 O11         9.3710    5.2420    1.2130 o         1 MOL     -0.677386
     67 O12         7.7410    6.2130    0.0690 o         1 MOL     -0.677386
     68 H28         5.9790    5.2840   -0.0660 hn        1 MOL      0.269498
     69 H29         5.2150    4.0760    2.4560 h1        1 MOL      0.043539
     70 H30         7.6830    4.9140    3.0100 hc        1 MOL      0.044629
     71 H31         6.5640    6.0930    2.4160 hc        1 MOL      0.044629
     72 N7          7.2200    2.1560    2.3500 n         1 MOL     -0.489726
     73 C23         8.1690    1.0270    2.1540 c3        1 MOL     -0.007691
     74 C24         7.5040   -0.2570    1.6850 c         1 MOL      0.375593
     75 O13         8.2680   -1.1720    1.3290 o         1 MOL     -0.537871
     76 H32         7.1790    2.5450    3.2810 hn        1 MOL      0.294730
     77 H33         8.5830    0.8690    3.1450 h1        1 MOL      0.103491
     78 H34         9.0330    1.2620    1.5280 h1        1 MOL      0.103491
     79 N8          6.1890   -0.2910    1.6580 n         1 MOL     -0.101764
     80 C25         5.3520   -1.3980    1.2770 c3        1 MOL     -0.059609
     81 C26         5.1640   -1.5100   -0.2190 c         1 MOL      0.495051
     82 O14         4.7760   -0.4840   -0.8520 o         1 MOL     -0.525107
     83 C27         3.9650   -1.1820    1.9370 c3        1 MOL      0.204471
     84 C28         3.9920   -1.5060    3.4500 c3        1 MOL     -0.063087
     85 O15         2.9920   -1.9860    1.4050 oh        1 MOL     -0.484047
     86 H35         5.8110    0.6370    1.8300 hn        1 MOL      0.066223
     87 H36         5.7320   -2.3640    1.5800 h1        1 MOL      0.085503
     88 H37         3.6790   -0.1360    1.7750 h1        1 MOL      0.086913
     89 H38         2.1520   -1.7620    1.8020 ho        1 MOL      0.197963
     90 H39         2.9990   -1.4660    3.9080 hc        1 MOL     -0.002670
     91 H40         4.2840   -2.5540    3.5550 hc        1 MOL     -0.002670
     92 H41         4.7730   -0.9180    3.9200 hc        1 MOL     -0.002670
     93 N9          5.4460   -2.6640   -0.8390 n         1 MOL     -0.256492
     94 C29         5.2750   -2.9320   -2.2820 c3        1 MOL     -0.326940
     95 C30         4.2210   -4.0070   -2.6300 c         1 MOL      0.631697
     96 O16         4.3710   -4.6190   -3.6750 o         1 MOL     -0.547677
     97 C31         6.6790   -3.1550   -2.9560 c3        1 MOL      0.279338
     98 C32         7.4320   -4.2450   -2.2340 c3        1 MOL     -0.058252
     99 C33         7.3430   -1.7690   -2.9900 c3        1 MOL     -0.392903
    100 C34         8.8390   -4.5410   -2.7170 c3        1 MOL     -0.207228
    101 H42         5.7920   -3.3880   -0.2250 hn        1 MOL      0.192969
    102 H43         4.8880   -2.0110   -2.7220 h1        1 MOL      0.159577
    103 H44         6.5850   -3.6210   -3.9330 hc        1 MOL     -0.007947
    104 H45         6.8540   -5.1770   -2.2080 hc        1 MOL      0.057136
    105 H46         7.6940   -3.8440   -1.2510 hc        1 MOL      0.057136
    106 H47         8.3320   -1.9160   -3.4050 hc        1 MOL      0.116189
    107 H48         6.7590   -1.1360   -3.6670 hc        1 MOL      0.116189
    108 H49         7.3790   -1.3030   -2.0050 hc        1 MOL      0.116189
    109 H50         9.5770   -3.7460   -2.8320 hc        1 MOL      0.050028
    110 H51         9.2980   -5.2020   -1.9760 hc        1 MOL      0.050028
    111 H52         8.7500   -5.0610   -3.6710 hc        1 MOL      0.050028
    112 N10         3.2330   -4.1700   -1.7620 n         1 MOL     -0.458447
    113 C35         1.9200   -4.8520   -1.9930 c3        1 MOL     -0.094064
    114 C36         0.8250   -3.8500   -1.6130 c         1 MOL      0.685962
    115 O17         0.6740   -3.3610   -0.4770 o         1 MOL     -0.547588
    116 C37         1.8180   -6.0930   -1.0770 c3        1 MOL      0.452182
    117 C38         2.8940   -7.1410   -1.3500 c3        1 MOL     -0.373308
    118 O18         0.5740   -6.6640   -1.2860 oh        1 MOL     -0.656804
    119 H53         3.3210   -3.6820   -0.8840 hn        1 MOL      0.245607
    120 H54         1.7630   -5.2010   -3.0090 h1        1 MOL      0.133579
    121 H55         1.7950   -5.7660   -0.0300 h1        1 MOL     -0.064927
    122 H56         0.5010   -7.4120   -0.6940 ho        1 MOL      0.412450
    123 H57         3.9050   -6.7460   -1.2590 hc        1 MOL      0.099242
    124 H58         2.7640   -7.9460   -0.6210 hc        1 MOL      0.099242
    125 H59         2.7770   -7.4400   -2.3990 hc        1 MOL      0.099242
    126 N11        -0.0560   -3.6710   -2.6380 n         1 MOL     -0.538604
    127 C39        -1.2380   -2.8080   -2.6510 c3        1 MOL     -0.194971
    128 C40        -2.6230   -3.5000   -2.7320 c         1 MOL      0.822895
    129 O19        -2.8450   -4.5710   -3.2660 o         1 MOL     -0.549458
    130 C41        -1.0720   -1.7970   -3.7720 c3        1 MOL      0.315663
    131 C42         0.2000   -1.0170   -3.5600 c3        1 MOL     -0.377125
    132 O20        -2.1170   -0.8630   -3.9350 oh        1 MOL     -0.672100
    133 H60         0.1600   -4.1320   -3.5060 hn        1 MOL      0.303081
    134 H61        -1.1120   -2.3040   -1.6880 h1        1 MOL      0.139401
    135 H62        -1.1370   -2.3450   -4.7070 h1        1 MOL      0.062707
    136 H63        -1.9160   -0.1130   -3.3820 ho        1 MOL      0.403425
    137 H64         1.0090   -1.5640   -4.0330 hc        1 MOL      0.123779
    138 H65         0.2840   -0.1740   -4.2530 hc        1 MOL      0.123779
    139 H66         0.3720   -0.7410   -2.5170 hc        1 MOL      0.123779
    140 N12        -3.6430   -2.8750   -2.0890 n         1 MOL     -0.610533
    141 C43        -5.0620   -3.2310   -2.1200 c3        1 MOL     -0.089094
    142 C44        -5.7200   -3.4580   -0.7220 c         1 MOL      0.525573
    143 O21        -6.7470   -4.2230   -0.5650 o         1 MOL     -0.529314
    144 C45        -5.7720   -2.2590   -3.0700 c3        1 MOL     -0.205943
    145 C46        -5.6670   -0.8180   -2.6250 c3        1 MOL     -0.100035
    146 C47        -6.2520    0.1040   -3.6640 c3        1 MOL     -0.094454
    147 C48        -5.3580    0.2440   -4.8800 c3        1 MOL      0.007691
    148 N13        -5.8850    1.0990   -5.9650 n4        1 MOL     -0.411063
    149 H67        -3.4750   -2.0490   -1.5370 hn        1 MOL      0.340445
    150 H68        -5.1870   -4.1750   -2.6560 h1        1 MOL      0.133574
    151 H69        -6.8260   -2.4730   -3.2050 hc        1 MOL      0.102286
    152 H70        -5.2910   -2.3890   -4.0400 hc        1 MOL      0.102286
    153 H71        -4.6370   -0.5570   -2.4070 hc        1 MOL      0.078590
    154 H72        -6.2710   -0.7300   -1.7230 hc        1 MOL      0.078590
    155 H73        -6.5010    1.0590   -3.2110 hc        1 MOL      0.064349
    156 H74        -7.2380   -0.2760   -3.9300 hc        1 MOL      0.064349
    157 H75        -5.1450   -0.7430   -5.2900 hx        1 MOL      0.112262
    158 H76        -4.4310    0.7040   -4.5150 hx        1 MOL      0.112262
    159 H77        -6.8800    0.9520   -6.0710 hn        1 MOL      0.328951
    160 H78        -5.7040    2.0400   -5.6680 hn        1 MOL      0.328951
    161 H79        -5.4310    0.9550   -6.8600 hn        1 MOL      0.328951
    162 N14        -5.1850   -2.7300    0.2810 n         1 MOL     -0.125573
    163 C49        -5.8860   -2.4840    1.5190 c3        1 MOL     -0.229431
    164 C50        -6.5940   -1.1390    1.5160 c         1 MOL      0.448990
    165 O22        -6.0980   -0.1080    1.0810 o         1 MOL     -0.513121
    166 C51        -4.9940   -2.6410    2.7920 c3        1 MOL      0.245678
    167 C52        -4.7610   -4.0920    3.1150 c3        1 MOL     -0.306099
    168 C53        -3.8870   -4.2330    4.4030 c         1 MOL      0.690459
    169 O23        -4.4280   -3.9690    5.5360 o         1 MOL     -0.704233
    170 O24        -2.6450   -4.2620    4.2710 o         1 MOL     -0.704233
    171 H80        -4.2750   -2.2960    0.2610 hn        1 MOL      0.163434
    172 H81        -6.7020   -3.1900    1.6320 h1        1 MOL      0.083061
    173 H82        -5.4570   -2.0580    3.5890 hc        1 MOL      0.021041
    174 H83        -4.0060   -2.2110    2.6570 hc        1 MOL      0.021041
    175 H84        -4.2630   -4.5820    2.2770 hc        1 MOL      0.053257
    176 H85        -5.7170   -4.5840    3.3020 hc        1 MOL      0.053257
    177 N15        -7.8280   -1.1630    2.0930 n         1 MOL     -0.304997
    178 C54        -8.7590   -0.0850    2.0690 c3        1 MOL      0.063259
    179 H86        -9.7190   -0.4420    1.6950 h1        1 MOL      0.029402
    180 H87        -8.8870    0.3090    3.0780 h1        1 MOL      0.029402
    181 H88        -8.3860    0.7040    1.4150 h1        1 MOL      0.029402
    182 H89        -8.1030   -2.0100    2.5670 hn        1 MOL      0.261324
    183 Ca1        -0.9050   -2.3760    4.0560 Ca        1 MOL      1.677303
    184 O25        -2.8120   -0.6330    4.7420 oh        1 MOL     -0.803161
    185 H90        -3.4510   -0.5370    4.0360 ho        1 MOL      0.397021
    186 H91        -2.5080    0.2510    4.9140 ho        1 MOL      0.397021
    187 O26        -1.2620   -3.3400    6.5420 oh        1 MOL     -0.803161
    188 H92        -0.8580   -3.5510    7.3750 ho        1 MOL      0.397021
    189 H93        -1.9440   -3.9970    6.4310 ho        1 MOL      0.397021
    190 O27        -0.5210   -4.1550    2.0190 oh        1 MOL     -0.803161
    191 H94         0.0020   -4.0650    1.2200 ho        1 MOL      0.397021
    192 H95        -0.2950   -5.0270    2.3570 ho        1 MOL      0.397021
@<TRIPOS>BOND
     1    1    2 1   
     2    1    4 1   
     3    1    5 1   
     4    1    6 1   
     5    2    3 2   
     6    2    7 1   
     7    7    8 1   
     8    7   15 1   
     9    8    9 1   
    10    8   11 1   
    11    8   16 1   
    12    9   10 2   
    13    9   19 1   
    14   11   12 1   
    15   11   17 1   
    16   11   18 1   
    17   12   13 1   
    18   12   14 1   
    19   19   20 1   
    20   19   28 1   
    21   20   21 1   
    22   20   23 1   
    23   20   29 1   
    24   21   22 2   
    25   21   41 1   
    26   23   24 1   
    27   23   30 1   
    28   23   31 1   
    29   24   25 1   
    30   24   32 1   
    31   24   33 1   
    32   25   26 1   
    33   25   34 1   
    34   25   35 1   
    35   26   27 1   
    36   26   36 1   
    37   26   37 1   
    38   27   38 1   
    39   27   39 1   
    40   27   40 1   
    41   41   42 1   
    42   41   49 1   
    43   42   43 1   
    44   42   45 1   
    45   42   50 1   
    46   43   44 2   
    47   43   53 1   
    48   45   46 1   
    49   45   51 1   
    50   45   52 1   
    51   46   47 1   
    52   46   48 1   
    53   53   54 1   
    54   53   57 1   
    55   54   55 1   
    56   54   58 1   
    57   54   59 1   
    58   55   56 2   
    59   55   60 1   
    60   60   61 1   
    61   60   68 1   
    62   61   62 1   
    63   61   64 1   
    64   61   69 1   
    65   62   63 2   
    66   62   72 1   
    67   64   65 1   
    68   64   70 1   
    69   64   71 1   
    70   65   66 1   
    71   65   67 1   
    72   72   73 1   
    73   72   76 1   
    74   73   74 1   
    75   73   77 1   
    76   73   78 1   
    77   74   75 2   
    78   74   79 1   
    79   79   80 1   
    80   79   86 1   
    81   80   81 1   
    82   80   83 1   
    83   80   87 1   
    84   81   82 2   
    85   81   93 1   
    86   83   84 1   
    87   83   85 1   
    88   83   88 1   
    89   84   90 1   
    90   84   91 1   
    91   84   92 1   
    92   85   89 1   
    93   93   94 1   
    94   93  101 1   
    95   94   95 1   
    96   94   97 1   
    97   94  102 1   
    98   95   96 2   
    99   95  112 1   
   100   97   98 1   
   101   97   99 1   
   102   97  103 1   
   103   98  100 1   
   104   98  104 1   
   105   98  105 1   
   106   99  106 1   
   107   99  107 1   
   108   99  108 1   
   109  100  109 1   
   110  100  110 1   
   111  100  111 1   
   112  112  113 1   
   113  112  119 1   
   114  113  114 1   
   115  113  116 1   
   116  113  120 1   
   117  114  115 2   
   118  114  126 1   
   119  116  117 1   
   120  116  118 1   
   121  116  121 1   
   122  117  123 1   
   123  117  124 1   
   124  117  125 1   
   125  118  122 1   
   126  126  127 1   
   127  126  133 1   
   128  127  128 1   
   129  127  130 1   
   130  127  134 1   
   131  128  129 2   
   132  128  140 1   
   133  130  131 1   
   134  130  132 1   
   135  130  135 1   
   136  131  137 1   
   137  131  138 1   
   138  131  139 1   
   139  132  136 1   
   140  140  141 1   
   141  140  149 1   
   142  141  142 1   
   143  141  144 1   
   144  141  150 1   
   145  142  143 2   
   146  142  162 1   
   147  144  145 1   
   148  144  151 1   
   149  144  152 1   
   150  145  146 1   
   151  145  153 1   
   152  145  154 1   
   153  146  147 1   
   154  146  155 1   
   155  146  156 1   
   156  147  148 1   
   157  147  157 1   
   158  147  158 1   
   159  148  159 1   
   160  148  160 1   
   161  148  161 1   
   162  162  163 1   
   163  162  171 1   
   164  163  164 1   
   165  163  166 1   
   166  163  172 1   
   167  164  165 2   
   168  164  177 1   
   169  166  167 1   
   170  166  173 1   
   171  166  174 1   
   172  167  168 1   
   173  167  175 1   
   174  167  176 1   
   175  168  169 1   
   176  168  170 1   
   177  177  178 1   
   178  177  182 1   
   179  178  179 1   
   180  178  180 1   
   181  178  181 1   
   182  184  185 1   
   183  184  186 1   
   184  187  188 1   
   185  187  189 1   
   186  190  191 1   
   187  190  192 1   
@<TRIPOS>SUBSTRUCTURE
     1 MOL         1 TEMP              0 ****  ****    0 ROOT
