@<TRIPOS>MOLECULE
MOL
  188   182     1     0     0
SMALL
resp


@<TRIPOS>ATOM
      1 C1         -6.5210   -0.9420    3.2800 c3        1 MOL     -0.331906
      2 C2         -6.8030   -1.5440    1.8920 c         1 MOL      0.688917
      3 O1         -6.0040   -1.5220    0.9830 o         1 MOL     -0.508942
      4 H1         -6.9800    0.0440    3.3470 hc        1 MOL      0.075099
      5 H2         -6.9400   -1.5910    4.0490 hc        1 MOL      0.075099
      6 H3         -5.4440   -0.8520    3.4260 hc        1 MOL      0.075099
      7 N1         -8.0400   -2.0350    1.8290 n         1 MOL     -0.591882
      8 C3         -8.5330   -2.5530    0.5140 c3        1 MOL     -0.222660
      9 C4         -8.4740   -1.4830   -0.5890 c         1 MOL      0.640803
     10 O2         -7.9820   -1.6870   -1.7220 o         1 MOL     -0.517342
     11 C5         -7.8050   -3.8580    0.1190 c3        1 MOL     -0.048342
     12 C6         -7.5340   -4.8710    1.2200 c         1 MOL      0.682122
     13 O3         -8.5150   -5.2700    1.9370 o         1 MOL     -0.637369
     14 O4         -6.4570   -5.5240    1.1550 o         1 MOL     -0.637369
     15 H4         -8.5700   -2.1060    2.6840 hn        1 MOL      0.357142
     16 H5         -9.5790   -2.8420    0.6440 h1        1 MOL      0.133614
     17 H6         -6.8970   -3.6490   -0.4580 hc        1 MOL      0.049807
     18 H7         -8.4260   -4.3560   -0.6280 hc        1 MOL      0.049807
     19 N2         -8.8400   -0.2540   -0.2150 n         1 MOL     -0.550060
     20 C7         -8.8040    0.9380   -1.0880 c3        1 MOL     -0.051192
     21 C8         -7.3920    1.3740   -1.4090 c         1 MOL      0.581950
     22 O5         -7.1700    2.3950   -2.1010 o         1 MOL     -0.595751
     23 C9         -9.7440    2.0540   -0.6310 c3        1 MOL     -0.077165
     24 C10        -9.1390    2.9000    0.5510 c3        1 MOL     -0.014794
     25 C11       -10.0950    4.0010    0.9990 c3        1 MOL     -0.077107
     26 C12        -9.5610    4.6860    2.2190 c3        1 MOL      0.222313
     27 N3        -10.4470    5.6150    2.8090 n4        1 MOL     -0.340769
     28 H8         -9.2950   -0.2420    0.6810 hn        1 MOL      0.306759
     29 H9         -9.2380    0.5690   -2.0170 h1        1 MOL      0.146989
     30 H10       -10.7300    1.6680   -0.3610 hc        1 MOL      0.065291
     31 H11        -9.9920    2.7790   -1.4020 hc        1 MOL      0.065291
     32 H12        -8.2160    3.3940    0.2320 hc        1 MOL      0.039002
     33 H13        -8.8940    2.2880    1.4260 hc        1 MOL      0.039002
     34 H14       -11.0320    3.5450    1.3120 hc        1 MOL      0.032458
     35 H15       -10.2170    4.7450    0.2040 hc        1 MOL      0.032458
     36 H16        -8.5970    5.1700    2.0600 hx        1 MOL      0.021502
     37 H17        -9.2810    3.9150    2.9420 hx        1 MOL      0.021502
     38 H18       -11.3130    5.1320    3.0420 hn        1 MOL      0.257195
     39 H19       -10.1030    6.0400    3.6470 hn        1 MOL      0.257195
     40 H20       -10.6030    6.4310    2.2390 hn        1 MOL      0.257195
     41 N4         -6.3080    0.7390   -0.9710 n         1 MOL     -0.474784
     42 C13        -4.9310    1.2880   -1.0770 c3        1 MOL     -0.028550
     43 C14        -4.3780    1.1600   -2.5660 c         1 MOL      0.711337
     44 O6         -4.2920    0.0360   -3.1450 o         1 MOL     -0.487360
     45 C15        -3.9230    0.4970   -0.1720 c3        1 MOL     -0.096640
     46 C16        -2.5660    1.0790   -0.2190 c         1 MOL      0.754052
     47 O7         -1.7730    0.7760   -1.1290 o         1 MOL     -0.814714
     48 O8         -2.1020    1.9180    0.6460 o         1 MOL     -0.814714
     49 H21        -6.3640   -0.1280   -0.4670 hn        1 MOL      0.340552
     50 H22        -4.8930    2.3040   -0.6990 h1        1 MOL      0.062541
     51 H23        -3.8780   -0.5500   -0.4840 hc        1 MOL      0.018069
     52 H24        -4.1940    0.4950    0.8920 hc        1 MOL      0.018069
     53 N5         -3.7620    2.2330   -3.0840 n         1 MOL     -0.428220
     54 C17        -3.2580    2.3020   -4.4830 c3        1 MOL     -0.142847
     55 C18        -2.2440    1.1820   -4.9270 c         1 MOL      0.509351
     56 O9         -2.3020    0.7600   -6.0650 o         1 MOL     -0.538540
     57 H25        -3.6170    3.0530   -2.5200 hn        1 MOL      0.253257
     58 H26        -2.7260    3.2220   -4.7210 h1        1 MOL      0.112650
     59 H27        -4.1370    2.3240   -5.1360 h1        1 MOL      0.112650
     60 N6         -1.3850    0.6960   -4.0280 n         1 MOL     -0.335389
     61 C19        -0.5130   -0.4640   -4.2480 c3        1 MOL      0.115387
     62 C20        -0.9020   -1.7170   -3.3760 c         1 MOL      0.401581
     63 O10        -0.1490   -2.7100   -3.3420 o         1 MOL     -0.536964
     64 C21         0.9620   -0.0310   -4.2780 c3        1 MOL     -0.243567
     65 C22         1.7170    0.1840   -2.9610 c         1 MOL      0.626769
     66 N7          2.9640   -0.3050   -2.8760 n         1 MOL     -0.753956
     67 O11         1.1740    0.7140   -1.9870 o         1 MOL     -0.645012
     68 H28        -1.5550    1.0430   -3.1010 hn        1 MOL      0.231395
     69 H29        -0.6130   -0.8110   -5.2770 h1        1 MOL      0.095256
     70 H30         0.9060    0.9670   -4.6970 hc        1 MOL      0.092253
     71 H31         1.5030   -0.6670   -4.9850 hc        1 MOL      0.092253
     72 H32         3.3290   -0.8040   -3.6730 hn        1 MOL      0.339625
     73 H33         3.5190   -0.0020   -2.0870 hn        1 MOL      0.339625
     74 N8         -2.1160   -1.7360   -2.7940 n         1 MOL     -0.091993
     75 C23        -2.6090   -2.8940   -2.0180 c3        1 MOL     -0.312055
     76 C24        -1.8730   -3.1630   -0.7270 c         1 MOL      0.672430
     77 O12        -1.5680   -4.3010   -0.4210 o         1 MOL     -0.555728
     78 H34        -2.6760   -0.8970   -2.9130 hn        1 MOL      0.114517
     79 H35        -2.6290   -3.7970   -2.6190 h1        1 MOL      0.148290
     80 H36        -3.5840   -2.6200   -1.6090 h1        1 MOL      0.148290
     81 N9         -1.5930   -2.0980    0.0170 n         1 MOL     -0.571655
     82 C25        -0.9360   -2.1890    1.3380 c3        1 MOL      0.138026
     83 C26         0.3440   -1.3530    1.1990 c         1 MOL      0.387515
     84 O13         0.3270   -0.2010    0.8310 o         1 MOL     -0.526121
     85 C27        -1.8790   -1.6650    2.4420 c3        1 MOL     -0.146652
     86 C28        -1.2030   -1.0230    3.6960 ca        1 MOL      0.028591
     87 C29        -0.6780   -1.9140    4.6480 ca        1 MOL     -0.148151
     88 C30        -1.1060    0.4020    3.8910 ca        1 MOL     -0.148151
     89 C31        -0.0410   -1.3880    5.7690 ca        1 MOL     -0.282874
     90 C32        -0.5590    0.9310    5.0760 ca        1 MOL     -0.282874
     91 C33         0.0940    0.0180    5.9570 ca        1 MOL      0.389812
     92 O14         0.5790    0.4670    7.0960 oh        1 MOL     -0.479971
     93 H37        -1.7880   -1.2310   -0.4630 hn        1 MOL      0.432390
     94 H38        -0.6610   -3.1960    1.6490 h1        1 MOL      0.059393
     95 H39        -2.4350   -2.5330    2.8090 hc        1 MOL      0.102869
     96 H40        -2.5560   -0.8990    2.0660 hc        1 MOL      0.102869
     97 H41        -0.6950   -2.9850    4.5360 ha        1 MOL      0.151430
     98 H42        -1.4920    1.0030    3.0800 ha        1 MOL      0.151430
     99 H43         0.4450   -2.0300    6.4920 ha        1 MOL      0.134470
    100 H44        -0.4940    1.9960    5.2680 ha        1 MOL      0.134470
    101 H45         0.6730    1.4240    7.1720 ho        1 MOL      0.368336
    102 N10         1.4760   -1.9020    1.6080 n         1 MOL     -0.338382
    103 C34         2.7920   -1.3400    1.4910 c3        1 MOL      0.248509
    104 C35         3.4340   -1.6790    0.1350 c         1 MOL      0.480876
    105 O15         4.2650   -0.8870   -0.3740 o         1 MOL     -0.536800
    106 C36         3.6940   -1.7890    2.6590 c3        1 MOL      0.055834
    107 C37         3.1190   -1.2710    3.9880 c3        1 MOL     -0.065273
    108 C38         5.2260   -1.3600    2.5600 c3        1 MOL     -0.322835
    109 C39         3.3210    0.2150    4.2520 c3        1 MOL     -0.067074
    110 H46         1.3950   -2.7720    2.1080 hn        1 MOL      0.207915
    111 H47         2.6930   -0.2630    1.5260 h1        1 MOL     -0.032177
    112 H48         3.5970   -2.8750    2.6870 hc        1 MOL     -0.028495
    113 H49         3.6340   -1.8550    4.7610 hc        1 MOL      0.037851
    114 H50         2.0730   -1.5680    4.0970 hc        1 MOL      0.037851
    115 H51         5.7280   -1.3340    3.5290 hc        1 MOL      0.091200
    116 H52         5.7560   -2.0440    1.9060 hc        1 MOL      0.091200
    117 H53         5.3060   -0.3870    2.0720 hc        1 MOL      0.091200
    118 H54         2.9310    0.6410    5.1730 hc        1 MOL      0.010488
    119 H55         4.3280    0.6160    4.1350 hc        1 MOL      0.010488
    120 H56         2.7620    0.7570    3.4900 hc        1 MOL      0.010488
    121 N11         3.1500   -2.8790   -0.3390 n         1 MOL     -0.092062
    122 C40         3.6550   -3.4960   -1.6060 c3        1 MOL     -0.262076
    123 C41         5.2220   -3.6120   -1.5810 c         1 MOL      0.587605
    124 O16         5.8180   -3.6060   -2.6360 o         1 MOL     -0.511951
    125 C42         3.0140   -4.8770   -1.8420 c3        1 MOL      0.105423
    126 O17         2.9240   -5.5790   -0.6240 oh        1 MOL     -0.627902
    127 H57         2.4920   -3.4790    0.1460 hn        1 MOL      0.180804
    128 H58         3.3630   -2.8060   -2.4020 h1        1 MOL      0.138600
    129 H59         3.4840   -5.4800   -2.6200 h1        1 MOL      0.081054
    130 H60         1.9970   -4.6940   -2.2150 h1        1 MOL      0.081054
    131 H61         2.4840   -6.4060   -0.8540 ho        1 MOL      0.435345
    132 N12         5.7840   -3.8940   -0.4030 n         1 MOL     -0.248791
    133 C43         7.2210   -3.8770   -0.1440 c3        1 MOL      0.138696
    134 C44         7.9380   -2.6420   -0.7390 c         1 MOL      0.488171
    135 O18         8.9240   -2.7130   -1.4590 o         1 MOL     -0.505534
    136 C45         7.9750   -5.1480   -0.5390 c3        1 MOL     -0.454805
    137 H62         5.1760   -4.1160    0.3810 hn        1 MOL      0.187881
    138 H63         7.2440   -3.8600    0.9500 h1        1 MOL      0.072340
    139 H64         8.9640   -5.0910   -0.0830 hc        1 MOL      0.128665
    140 H65         7.4490   -6.0060   -0.1330 hc        1 MOL      0.128665
    141 H66         7.9190   -5.3670   -1.6070 hc        1 MOL      0.128665
    142 N13         7.4300   -1.4020   -0.5250 n         1 MOL     -0.482228
    143 C46         7.7240   -0.1650   -1.2390 c3        1 MOL      0.370446
    144 C47         7.5810    1.0130   -0.3070 c         1 MOL      0.328382
    145 O19         6.9870    0.9040    0.7790 o         1 MOL     -0.382173
    146 C48         6.8290   -0.0800   -2.4470 c3        1 MOL     -0.404710
    147 H67         6.6630   -1.3950    0.1270 hn        1 MOL      0.121206
    148 H68         8.7380   -0.1840   -1.6420 h1        1 MOL     -0.003758
    149 H69         7.0550    0.7910   -3.0600 hc        1 MOL      0.116292
    150 H70         6.9870   -0.9950   -3.0110 hc        1 MOL      0.116292
    151 H71         5.7810   -0.1400   -2.1710 hc        1 MOL      0.116292
    152 N14         8.2740    2.0980   -0.6260 n         1 MOL     -0.367064
    153 C49         8.4420    3.2710    0.3130 c3        1 MOL      0.044201
    154 C50         9.0640    2.9710    1.6540 c         1 MOL      0.377747
    155 O20         8.8370    3.7200    2.6230 o         1 MOL     -0.496039
    156 C51         7.0890    4.1400    0.4090 c3        1 MOL      0.117928
    157 C52         6.4950    4.4340   -0.9770 c3        1 MOL     -0.061175
    158 C53         5.2120    5.2600   -1.0460 c         1 MOL      0.623423
    159 O21         5.2420    6.4270   -1.5590 o         1 MOL     -0.668260
    160 O22         4.0850    4.8080   -0.7290 o         1 MOL     -0.668260
    161 H72         8.7560    2.1750   -1.5040 hn        1 MOL      0.278524
    162 H73         9.2000    3.8550   -0.2120 h1        1 MOL      0.063379
    163 H74         7.2140    5.1240    0.8400 hc        1 MOL     -0.019212
    164 H75         6.3050    3.5200    0.8610 hc        1 MOL     -0.019212
    165 H76         6.3290    3.4750   -1.4820 hc        1 MOL     -0.030763
    166 H77         7.1310    4.9240   -1.7220 hc        1 MOL     -0.030763
    167 N15         9.8870    1.9150    1.7480 n         1 MOL     -0.252800
    168 C54        10.3700    1.3200    2.9910 c3        1 MOL     -0.061999
    169 H78         9.9850    1.8880    3.8380 h1        1 MOL      0.068129
    170 H79        10.0240    0.2880    3.0580 h1        1 MOL      0.068129
    171 H80        11.4590    1.3400    3.0050 h1        1 MOL      0.068129
    172 H81        10.1010    1.5240    0.8380 hn        1 MOL      0.193432
    173 Ca1         0.3130    2.3490   -0.1030 Ca        1 MOL      1.842001
    174 O23         1.4430    2.6210    2.4920 oh        1 MOL     -0.849308
    175 H82         0.9660    2.4310    3.3090 ho        1 MOL      0.414303
    176 H83         2.2770    2.9910    2.7740 ho        1 MOL      0.414303
    177 O24        -0.3850    4.5710    1.1530 oh        1 MOL     -0.849308
    178 H84        -0.5950    5.4300    0.7870 ho        1 MOL      0.414303
    179 H85        -0.4880    4.6840    2.0970 ho        1 MOL      0.414303
    180 O25         3.2530    2.0340   -0.0630 oh        1 MOL     -0.849308
    181 H86         3.5190    2.9560   -0.0850 ho        1 MOL      0.414303
    182 H87         4.0720    1.5410   -0.0900 ho        1 MOL      0.414303
    183 O26         1.8220    3.8490   -1.7930 oh        1 MOL     -0.849308
    184 H88         2.0220    3.4340   -2.6310 ho        1 MOL      0.414303
    185 H89         2.6650    4.1600   -1.4690 ho        1 MOL      0.414303
    186 O27        -1.0040    3.8970   -2.0150 oh        1 MOL     -0.849308
    187 H90        -0.6300    4.6380   -2.4930 ho        1 MOL      0.414303
    188 H91        -1.9440    4.0800   -1.9880 ho        1 MOL      0.414303
@<TRIPOS>BOND
     1    1    2 1   
     2    1    4 1   
     3    1    5 1   
     4    1    6 1   
     5    2    3 2   
     6    2    7 1   
     7    7    8 1   
     8    7   15 1   
     9    8    9 1   
    10    8   11 1   
    11    8   16 1   
    12    9   10 2   
    13    9   19 1   
    14   11   12 1   
    15   11   17 1   
    16   11   18 1   
    17   12   13 1   
    18   12   14 1   
    19   19   20 1   
    20   19   28 1   
    21   20   21 1   
    22   20   23 1   
    23   20   29 1   
    24   21   22 2   
    25   21   41 1   
    26   23   24 1   
    27   23   30 1   
    28   23   31 1   
    29   24   25 1   
    30   24   32 1   
    31   24   33 1   
    32   25   26 1   
    33   25   34 1   
    34   25   35 1   
    35   26   27 1   
    36   26   36 1   
    37   26   37 1   
    38   27   38 1   
    39   27   39 1   
    40   27   40 1   
    41   41   42 1   
    42   41   49 1   
    43   42   43 1   
    44   42   45 1   
    45   42   50 1   
    46   43   44 2   
    47   43   53 1   
    48   45   46 1   
    49   45   51 1   
    50   45   52 1   
    51   46   47 1   
    52   46   48 1   
    53   53   54 1   
    54   53   57 1   
    55   54   55 1   
    56   54   58 1   
    57   54   59 1   
    58   55   56 2   
    59   55   60 1   
    60   60   61 1   
    61   60   68 1   
    62   61   62 1   
    63   61   64 1   
    64   61   69 1   
    65   62   63 2   
    66   62   74 1   
    67   64   65 1   
    68   64   70 1   
    69   64   71 1   
    70   65   66 1   
    71   65   67 2   
    72   66   72 1   
    73   66   73 1   
    74   74   75 1   
    75   74   78 1   
    76   75   76 1   
    77   75   79 1   
    78   75   80 1   
    79   76   77 2   
    80   76   81 1   
    81   81   82 1   
    82   81   93 1   
    83   82   83 1   
    84   82   85 1   
    85   82   94 1   
    86   83   84 2   
    87   83  102 1   
    88   85   86 1   
    89   85   95 1   
    90   85   96 1   
    91   86   87 ar  
    92   86   88 ar  
    93   87   89 ar  
    94   87   97 1   
    95   88   90 ar  
    96   88   98 1   
    97   89   91 ar  
    98   89   99 1   
    99   90   91 ar  
   100   90  100 1   
   101   91   92 1   
   102   92  101 1   
   103  102  103 1   
   104  102  110 1   
   105  103  104 1   
   106  103  106 1   
   107  103  111 1   
   108  104  105 2   
   109  104  121 1   
   110  106  107 1   
   111  106  108 1   
   112  106  112 1   
   113  107  109 1   
   114  107  113 1   
   115  107  114 1   
   116  108  115 1   
   117  108  116 1   
   118  108  117 1   
   119  109  118 1   
   120  109  119 1   
   121  109  120 1   
   122  121  122 1   
   123  121  127 1   
   124  122  123 1   
   125  122  125 1   
   126  122  128 1   
   127  123  124 2   
   128  123  132 1   
   129  125  126 1   
   130  125  129 1   
   131  125  130 1   
   132  126  131 1   
   133  132  133 1   
   134  132  137 1   
   135  133  134 1   
   136  133  136 1   
   137  133  138 1   
   138  134  135 2   
   139  134  142 1   
   140  136  139 1   
   141  136  140 1   
   142  136  141 1   
   143  142  143 1   
   144  142  147 1   
   145  143  144 1   
   146  143  146 1   
   147  143  148 1   
   148  144  145 2   
   149  144  152 1   
   150  146  149 1   
   151  146  150 1   
   152  146  151 1   
   153  152  153 1   
   154  152  161 1   
   155  153  154 1   
   156  153  156 1   
   157  153  162 1   
   158  154  155 2   
   159  154  167 1   
   160  156  157 1   
   161  156  163 1   
   162  156  164 1   
   163  157  158 1   
   164  157  165 1   
   165  157  166 1   
   166  158  159 1   
   167  158  160 1   
   168  167  168 1   
   169  167  172 1   
   170  168  169 1   
   171  168  170 1   
   172  168  171 1   
   173  174  175 1   
   174  174  176 1   
   175  177  178 1   
   176  177  179 1   
   177  180  181 1   
   178  180  182 1   
   179  183  184 1   
   180  183  185 1   
   181  186  187 1   
   182  186  188 1   
@<TRIPOS>SUBSTRUCTURE
     1 MOL         1 TEMP              0 ****  ****    0 ROOT
