@<TRIPOS>MOLECULE
MOL
  192   187     1     0     0
SMALL
resp


@<TRIPOS>ATOM
      1 C1          9.5990    0.6310    1.4050 c3        1 MOL     -0.633706
      2 C2          8.2090    0.5320    0.7460 c         1 MOL      0.720244
      3 O1          7.2400    0.9810    1.3940 o         1 MOL     -0.625437
      4 H1          9.4880    0.9530    2.4400 hc        1 MOL      0.159426
      5 H2         10.0840   -0.3450    1.3790 hc        1 MOL      0.159426
      6 H3         10.2080    1.3550    0.8640 hc        1 MOL      0.159426
      7 N1          8.2450   -0.0970   -0.4270 n         1 MOL     -0.437050
      8 C3          7.0440   -0.3480   -1.2110 c3        1 MOL      0.141604
      9 C4          6.7480   -1.8660   -1.3810 c         1 MOL      0.320688
     10 O2          6.5570   -2.4710   -2.4550 o         1 MOL     -0.409980
     11 C5          7.1200    0.3200   -2.5570 c3        1 MOL     -0.259509
     12 C6          8.3460    0.1220   -3.3980 c         1 MOL      0.693135
     13 O3          8.3210    0.4910   -4.5870 o         1 MOL     -0.629929
     14 O4          9.3530   -0.5120   -3.0070 o         1 MOL     -0.629929
     15 H4          9.1060   -0.2690   -0.9250 hn        1 MOL      0.221049
     16 H5          6.2190    0.0360   -0.6080 h1        1 MOL      0.048849
     17 H6          7.0750    1.4000   -2.3760 hc        1 MOL      0.093729
     18 H7          6.2900   -0.0340   -3.1590 hc        1 MOL      0.093729
     19 N2          6.5270   -2.5010   -0.2370 n         1 MOL     -0.243648
     20 C7          5.9290   -3.7950   -0.0140 c3        1 MOL      0.270692
     21 C8          4.4150   -3.9340   -0.1530 c         1 MOL      0.370474
     22 O5          3.9990   -4.9340   -0.7790 o         1 MOL     -0.542555
     23 C9          6.4000   -4.2790    1.3740 c3        1 MOL     -0.220736
     24 C10         7.8560   -4.4770    1.4960 c3        1 MOL      0.081958
     25 C11         8.2170   -4.5210    3.0000 c3        1 MOL      0.025839
     26 C12         9.7230   -4.5650    3.2650 c3        1 MOL     -0.015673
     27 N3         10.0580   -4.1970    4.6360 n4        1 MOL     -0.189042
     28 H8          6.6340   -1.9420    0.5970 hn        1 MOL      0.181876
     29 H9          6.3740   -4.4870   -0.7260 h1        1 MOL      0.026762
     30 H10         5.9630   -5.2520    1.6060 hc        1 MOL      0.058637
     31 H11         6.0570   -3.5720    2.1250 hc        1 MOL      0.058637
     32 H12         8.3790   -3.6310    1.0630 hc        1 MOL      0.002217
     33 H13         8.1750   -5.4450    1.1220 hc        1 MOL      0.002217
     34 H14         7.7670   -5.3940    3.4650 hc        1 MOL      0.007562
     35 H15         7.8550   -3.5970    3.4520 hc        1 MOL      0.007562
     36 H16        10.2250   -3.9650    2.4960 hx        1 MOL      0.076699
     37 H17         9.9280   -5.6240    3.1650 hx        1 MOL      0.076699
     38 H18         9.7910   -3.2670    4.9410 hn        1 MOL      0.235032
     39 H19         9.5860   -4.9130    5.1770 hn        1 MOL      0.235032
     40 H20        11.0500   -4.2850    4.7810 hn        1 MOL      0.235032
     41 N4          3.4860   -3.0780    0.1730 n         1 MOL     -0.367200
     42 C13         3.6380   -1.7580    0.8050 c3        1 MOL      0.007160
     43 C14         3.7280   -0.6300   -0.2680 c         1 MOL      0.230489
     44 O6          3.6940   -0.7990   -1.4860 o         1 MOL     -0.347051
     45 C15         2.3880   -1.4560    1.6730 c3        1 MOL      0.014997
     46 C16         1.0740   -1.9600    1.0830 c         1 MOL      0.472105
     47 O7          0.7340   -1.5120   -0.0180 o         1 MOL     -0.620159
     48 O8          0.3690   -2.7780    1.6290 o         1 MOL     -0.620159
     49 H21         2.5750   -3.4090   -0.1330 hn        1 MOL      0.374701
     50 H22         4.4930   -1.7260    1.4660 h1        1 MOL      0.094756
     51 H23         2.3120   -0.3730    1.8230 hc        1 MOL     -0.007187
     52 H24         2.6050   -1.9200    2.6310 hc        1 MOL     -0.007187
     53 N5          3.9190    0.5680    0.2290 n         1 MOL     -0.459319
     54 C17         4.1810    1.7910   -0.4720 c3        1 MOL      0.065284
     55 C18         2.8720    2.3380   -1.0380 c         1 MOL      0.539799
     56 O9          1.8170    1.7770   -0.8790 o         1 MOL     -0.559904
     57 H25         4.1550    0.6230    1.2160 hn        1 MOL      0.299066
     58 H26         4.8380    1.5550   -1.3070 h1        1 MOL      0.041631
     59 H27         4.6410    2.5410    0.1610 h1        1 MOL      0.041631
     60 N6          2.9690    3.4400   -1.7350 n         1 MOL     -0.276084
     61 C19         1.8720    4.1570   -2.3400 c3        1 MOL      0.038789
     62 C20         2.2970    5.6530   -2.4890 c         1 MOL      0.428953
     63 O10         3.4910    5.8920   -2.6210 o         1 MOL     -0.524667
     64 C21         1.5360    3.7010   -3.7370 c3        1 MOL     -0.228609
     65 C22         1.0520    2.2600   -3.7530 c         1 MOL      0.567882
     66 O11         0.0130    1.9330   -3.0640 o         1 MOL     -0.604074
     67 O12         1.7110    1.4400   -4.4030 o         1 MOL     -0.604074
     68 H28         3.8370    3.9310   -1.8630 hn        1 MOL      0.229938
     69 H29         1.0470    4.0530   -1.6420 h1        1 MOL      0.088259
     70 H30         2.4520    3.7030   -4.3270 hc        1 MOL      0.081908
     71 H31         0.7150    4.2830   -4.1630 hc        1 MOL      0.081908
     72 N7          1.4800    6.6800   -2.4530 n         1 MOL     -0.340290
     73 C23         0.0440    6.6310   -2.3240 c3        1 MOL     -0.090396
     74 C24        -0.4320    6.0670   -0.9770 c         1 MOL      0.585104
     75 O13         0.1630    6.2950    0.0970 o         1 MOL     -0.487327
     76 H32         2.0230    7.4970   -2.6920 hn        1 MOL      0.295983
     77 H33        -0.4320    6.1520   -3.1790 h1        1 MOL      0.086390
     78 H34        -0.3110    7.6480   -2.4720 h1        1 MOL      0.086390
     79 N8         -1.6570    5.5000   -0.9660 n         1 MOL     -0.587127
     80 C25        -2.3110    4.8850    0.2060 c3        1 MOL     -0.049525
     81 C26        -1.3240    3.7430    0.6780 c         1 MOL      0.678463
     82 O14        -0.8050    3.0400   -0.2140 o         1 MOL     -0.726360
     83 C27        -3.7060    4.4850   -0.1050 c3        1 MOL      0.322710
     84 C28        -4.2920    3.9280    1.1500 c3        1 MOL     -0.344814
     85 O15        -3.6970    3.3590   -0.9970 oh        1 MOL     -0.584577
     86 H35        -1.9740    5.2350   -1.8910 hn        1 MOL      0.296468
     87 H36        -2.3620    5.6580    0.9730 h1        1 MOL      0.103388
     88 H37        -4.3650    5.2720   -0.4850 h1        1 MOL      0.050912
     89 H38        -3.2710    3.5820   -1.8210 ho        1 MOL      0.378680
     90 H39        -4.3600    4.6260    1.9850 hc        1 MOL      0.110207
     91 H40        -5.3020    3.7310    0.7920 hc        1 MOL      0.110207
     92 H41        -3.8050    2.9870    1.3950 hc        1 MOL      0.110207
     93 N9         -1.1410    3.6070    2.0150 n         1 MOL     -0.556910
     94 C29        -0.3190    2.6960    2.7160 c3        1 MOL      0.152947
     95 C30        -0.7630    1.2500    2.3890 c         1 MOL      0.130093
     96 O16        -0.1680    0.6290    1.5560 o         1 MOL     -0.372325
     97 C31         1.2420    2.9300    2.4060 c3        1 MOL      0.142897
     98 C32         1.6220    4.4170    2.5650 c3        1 MOL     -0.008043
     99 C33         2.0710    2.0590    3.3730 c3        1 MOL     -0.457228
    100 C34         3.1180    4.6150    2.1720 c3        1 MOL     -0.057828
    101 H42        -1.6040    4.2730    2.6160 hn        1 MOL      0.291530
    102 H43        -0.4400    2.8930    3.7800 h1        1 MOL      0.055839
    103 H44         1.5100    2.6900    1.3800 hc        1 MOL      0.135020
    104 H45         1.4340    4.7660    3.5780 hc        1 MOL     -0.007302
    105 H46         1.0640    5.0590    1.8760 hc        1 MOL     -0.007302
    106 H47         2.8550    1.5810    2.7770 hc        1 MOL      0.114320
    107 H48         2.4140    2.6690    4.2140 hc        1 MOL      0.114320
    108 H49         1.4910    1.2180    3.7360 hc        1 MOL      0.114320
    109 H50         3.4170    5.6380    2.3870 hc        1 MOL      0.017800
    110 H51         3.8000    3.9850    2.7410 hc        1 MOL      0.017800
    111 H52         3.3120    4.5290    1.1010 hc        1 MOL      0.017800
    112 N10        -1.7380    0.8100    3.1760 n         1 MOL     -0.097811
    113 C35        -2.3300   -0.5780    3.1020 c3        1 MOL     -0.269808
    114 C36        -3.8460   -0.6000    3.0920 c         1 MOL      0.526785
    115 O17        -4.3870   -1.6750    3.3420 o         1 MOL     -0.552955
    116 C37        -1.6980   -1.5240    4.1470 c3        1 MOL      0.322906
    117 C38        -1.9100   -1.1160    5.6000 c3        1 MOL     -0.251934
    118 O18        -0.3180   -1.5000    3.9830 oh        1 MOL     -0.560332
    119 H53        -2.1510    1.4330    3.8620 hn        1 MOL      0.224776
    120 H54        -2.1720   -0.9630    2.0970 h1        1 MOL      0.131944
    121 H55        -2.0120   -2.5540    4.0030 h1        1 MOL      0.059030
    122 H56        -0.0190   -1.9000    3.1720 ho        1 MOL      0.335894
    123 H57        -2.9580   -1.1180    5.8950 hc        1 MOL      0.062846
    124 H58        -1.3140   -1.7280    6.2910 hc        1 MOL      0.062846
    125 H59        -1.5540   -0.0890    5.7140 hc        1 MOL      0.062846
    126 N11        -4.5130    0.5590    2.9670 n         1 MOL     -0.125533
    127 C39        -5.9900    0.6650    3.0950 c3        1 MOL     -0.109157
    128 C40        -6.7050    0.0310    1.8870 c         1 MOL      0.521173
    129 O19        -7.1820    0.7560    1.0350 o         1 MOL     -0.537915
    130 C41        -6.3820    2.1680    3.4480 c3        1 MOL      0.389622
    131 C42        -7.9270    2.3190    3.7260 c3        1 MOL     -0.361441
    132 O20        -5.6460    2.6460    4.5810 oh        1 MOL     -0.662603
    133 H60        -3.9660    1.3980    2.8100 hn        1 MOL      0.139433
    134 H61        -6.3620    0.1050    3.9530 h1        1 MOL      0.075402
    135 H62        -6.1200    2.7800    2.5860 h1        1 MOL     -0.031354
    136 H63        -6.1340    3.3640    4.9940 ho        1 MOL      0.417140
    137 H64        -8.1710    3.3870    3.8160 hc        1 MOL      0.094761
    138 H65        -8.5240    2.0700    2.8510 hc        1 MOL      0.094761
    139 H66        -8.2310    1.9130    4.6900 hc        1 MOL      0.094761
    140 N12        -6.6860   -1.2660    1.8080 n         1 MOL     -0.520533
    141 C43        -6.9350   -2.1270    0.6150 c3        1 MOL      0.145852
    142 C44        -5.7460   -1.8470   -0.2710 c         1 MOL      0.454719
    143 O21        -5.3770   -0.7230   -0.5840 o         1 MOL     -0.509851
    144 C45        -8.2920   -1.9220   -0.0420 c3        1 MOL     -0.294025
    145 C46        -8.3990   -2.7310   -1.3180 c3        1 MOL      0.077820
    146 C47        -9.7710   -2.8860   -1.9620 c3        1 MOL     -0.014016
    147 C48       -10.4210   -1.5250   -2.1670 c3        1 MOL      0.097210
    148 N13       -11.6640   -1.4630   -3.0510 n4        1 MOL     -0.282546
    149 H67        -6.2040   -1.6750    2.6030 hn        1 MOL      0.300445
    150 H68        -6.8870   -3.1620    0.9340 h1        1 MOL      0.059103
    151 H69        -8.3950   -0.8600   -0.2640 hc        1 MOL      0.118374
    152 H70        -9.0880   -2.1930    0.6600 hc        1 MOL      0.118374
    153 H71        -8.1540   -3.7630   -1.0640 hc        1 MOL      0.016219
    154 H72        -7.6540   -2.4830   -2.0790 hc        1 MOL      0.016219
    155 H73       -10.4980   -3.5120   -1.4470 hc        1 MOL      0.020486
    156 H74        -9.6900   -3.3530   -2.9420 hc        1 MOL      0.020486
    157 H75        -9.6190   -0.9040   -2.5670 hx        1 MOL      0.055164
    158 H76       -10.6020   -1.1720   -1.1480 hx        1 MOL      0.055164
    159 H77       -12.2380   -0.6490   -2.8800 hn        1 MOL      0.248396
    160 H78       -11.3580   -1.5190   -4.0210 hn        1 MOL      0.248396
    161 H79       -12.2570   -2.2710   -2.9590 hn        1 MOL      0.248396
    162 N14        -5.0050   -2.8760   -0.5490 n         1 MOL     -0.367348
    163 C49        -3.9300   -2.9570   -1.4880 c3        1 MOL      0.165579
    164 C50        -2.5110   -2.7880   -0.8580 c         1 MOL      0.504844
    165 O22        -1.7790   -1.9350   -1.3570 o         1 MOL     -0.652517
    166 C51        -3.9980   -4.2630   -2.2940 c3        1 MOL      0.187444
    167 C52        -5.2740   -4.4170   -3.1830 c3        1 MOL     -0.375430
    168 C53        -5.2030   -5.6470   -4.0650 c         1 MOL      0.685230
    169 O23        -4.9450   -5.6540   -5.3290 o         1 MOL     -0.633691
    170 O24        -5.3920   -6.7910   -3.5340 o         1 MOL     -0.633691
    171 H80        -5.2100   -3.7530   -0.0850 hn        1 MOL      0.266700
    172 H81        -4.0560   -2.1680   -2.2250 h1        1 MOL      0.068038
    173 H82        -4.0440   -5.0530   -1.5540 hc        1 MOL     -0.002458
    174 H83        -3.0970   -4.3770   -2.8910 hc        1 MOL     -0.002458
    175 H84        -5.1730   -3.5050   -3.7810 hc        1 MOL      0.050396
    176 H85        -6.1750   -4.4600   -2.5690 hc        1 MOL      0.050396
    177 N15        -2.0960   -3.3780    0.2310 n         1 MOL     -0.421719
    178 C54        -2.4610   -4.7290    0.7170 c3        1 MOL      0.006719
    179 H86        -2.7230   -5.3620   -0.1310 h1        1 MOL      0.031005
    180 H87        -1.6150   -5.1650    1.2490 h1        1 MOL      0.031005
    181 H88        -3.3150   -4.6550    1.3910 h1        1 MOL      0.031005
    182 H89        -1.1950   -3.0070    0.5060 hn        1 MOL      0.430783
    183 Ca1        -0.4960    0.4070   -1.1410 Ca        1 MOL      1.788934
    184 O25        -3.0480    0.7220   -0.1390 oh        1 MOL     -0.888518
    185 H90        -3.3640    1.5880   -0.3870 ho        1 MOL      0.412966
    186 H91        -3.8000    0.1470   -0.2590 ho        1 MOL      0.412966
    187 O26         1.3000   -0.5630   -2.7410 oh        1 MOL     -0.888518
    188 H92         2.0580   -0.5470   -2.1550 ho        1 MOL      0.412966
    189 H93         1.5320    0.0540   -3.4370 ho        1 MOL      0.412966
    190 O27        -2.2280    0.2780   -3.1450 oh        1 MOL     -0.888518
    191 H94        -3.1070   -0.0110   -3.4150 ho        1 MOL      0.412966
    192 H95        -1.8600    0.6930   -3.9220 ho        1 MOL      0.412966
@<TRIPOS>BOND
     1    1    2 1   
     2    1    4 1   
     3    1    5 1   
     4    1    6 1   
     5    2    3 2   
     6    2    7 1   
     7    7    8 1   
     8    7   15 1   
     9    8    9 1   
    10    8   11 1   
    11    8   16 1   
    12    9   10 2   
    13    9   19 1   
    14   11   12 1   
    15   11   17 1   
    16   11   18 1   
    17   12   13 1   
    18   12   14 1   
    19   19   20 1   
    20   19   28 1   
    21   20   21 1   
    22   20   23 1   
    23   20   29 1   
    24   21   22 2   
    25   21   41 1   
    26   23   24 1   
    27   23   30 1   
    28   23   31 1   
    29   24   25 1   
    30   24   32 1   
    31   24   33 1   
    32   25   26 1   
    33   25   34 1   
    34   25   35 1   
    35   26   27 1   
    36   26   36 1   
    37   26   37 1   
    38   27   38 1   
    39   27   39 1   
    40   27   40 1   
    41   41   42 1   
    42   41   49 1   
    43   42   43 1   
    44   42   45 1   
    45   42   50 1   
    46   43   44 2   
    47   43   53 1   
    48   45   46 1   
    49   45   51 1   
    50   45   52 1   
    51   46   47 1   
    52   46   48 1   
    53   53   54 1   
    54   53   57 1   
    55   54   55 1   
    56   54   58 1   
    57   54   59 1   
    58   55   56 2   
    59   55   60 1   
    60   60   61 1   
    61   60   68 1   
    62   61   62 1   
    63   61   64 1   
    64   61   69 1   
    65   62   63 2   
    66   62   72 1   
    67   64   65 1   
    68   64   70 1   
    69   64   71 1   
    70   65   66 1   
    71   65   67 1   
    72   72   73 1   
    73   72   76 1   
    74   73   74 1   
    75   73   77 1   
    76   73   78 1   
    77   74   75 2   
    78   74   79 1   
    79   79   80 1   
    80   79   86 1   
    81   80   81 1   
    82   80   83 1   
    83   80   87 1   
    84   81   82 2   
    85   81   93 1   
    86   83   84 1   
    87   83   85 1   
    88   83   88 1   
    89   84   90 1   
    90   84   91 1   
    91   84   92 1   
    92   85   89 1   
    93   93   94 1   
    94   93  101 1   
    95   94   95 1   
    96   94   97 1   
    97   94  102 1   
    98   95   96 2   
    99   95  112 1   
   100   97   98 1   
   101   97   99 1   
   102   97  103 1   
   103   98  100 1   
   104   98  104 1   
   105   98  105 1   
   106   99  106 1   
   107   99  107 1   
   108   99  108 1   
   109  100  109 1   
   110  100  110 1   
   111  100  111 1   
   112  112  113 1   
   113  112  119 1   
   114  113  114 1   
   115  113  116 1   
   116  113  120 1   
   117  114  115 2   
   118  114  126 1   
   119  116  117 1   
   120  116  118 1   
   121  116  121 1   
   122  117  123 1   
   123  117  124 1   
   124  117  125 1   
   125  118  122 1   
   126  126  127 1   
   127  126  133 1   
   128  127  128 1   
   129  127  130 1   
   130  127  134 1   
   131  128  129 2   
   132  128  140 1   
   133  130  131 1   
   134  130  132 1   
   135  130  135 1   
   136  131  137 1   
   137  131  138 1   
   138  131  139 1   
   139  132  136 1   
   140  140  141 1   
   141  140  149 1   
   142  141  142 1   
   143  141  144 1   
   144  141  150 1   
   145  142  143 2   
   146  142  162 1   
   147  144  145 1   
   148  144  151 1   
   149  144  152 1   
   150  145  146 1   
   151  145  153 1   
   152  145  154 1   
   153  146  147 1   
   154  146  155 1   
   155  146  156 1   
   156  147  148 1   
   157  147  157 1   
   158  147  158 1   
   159  148  159 1   
   160  148  160 1   
   161  148  161 1   
   162  162  163 1   
   163  162  171 1   
   164  163  164 1   
   165  163  166 1   
   166  163  172 1   
   167  164  165 2   
   168  164  177 1   
   169  166  167 1   
   170  166  173 1   
   171  166  174 1   
   172  167  168 1   
   173  167  175 1   
   174  167  176 1   
   175  168  169 1   
   176  168  170 1   
   177  177  178 1   
   178  177  182 1   
   179  178  179 1   
   180  178  180 1   
   181  178  181 1   
   182  184  185 1   
   183  184  186 1   
   184  187  188 1   
   185  187  189 1   
   186  190  191 1   
   187  190  192 1   
@<TRIPOS>SUBSTRUCTURE
     1 MOL         1 TEMP              0 ****  ****    0 ROOT
