@<TRIPOS>MOLECULE
MOL
  201   193     1     0     0
SMALL
resp


@<TRIPOS>ATOM
      1 C1         -5.5420   -5.3580   -2.3380 c3        1 MOL     -0.484586
      2 C2         -6.2150   -4.0300   -2.6140 c         1 MOL      0.736571
      3 O1         -5.6790   -3.0670   -3.1150 o         1 MOL     -0.617453
      4 H1         -6.0650   -5.8680   -1.5290 hc        1 MOL      0.110983
      5 H2         -5.5720   -5.9750   -3.2350 hc        1 MOL      0.110983
      6 H3         -4.5060   -5.1880   -2.0480 hc        1 MOL      0.110983
      7 N1         -7.4510   -4.0270   -2.1610 n         1 MOL     -0.490555
      8 C3         -8.3260   -2.8360   -2.2510 c3        1 MOL      0.092057
      9 C4         -7.7690   -1.6980   -1.3970 c         1 MOL      0.589991
     10 O2         -7.2210   -1.8440   -0.2820 o         1 MOL     -0.506752
     11 C5         -9.7730   -3.1970   -1.8240 c3        1 MOL     -0.392844
     12 C6         -9.8130   -4.1580   -0.5740 c         1 MOL      0.753869
     13 O3        -10.2240   -5.3330   -0.7290 o         1 MOL     -0.689012
     14 O4         -9.3010   -3.7500    0.4730 o         1 MOL     -0.689012
     15 H4         -7.6670   -4.9540   -1.8060 hn        1 MOL      0.304739
     16 H5         -8.3400   -2.5520   -3.3050 h1        1 MOL      0.056485
     17 H6        -10.2340   -3.7030   -2.6790 hc        1 MOL      0.106989
     18 H7        -10.3140   -2.2680   -1.6580 hc        1 MOL      0.106989
     19 N2         -8.0260   -0.4380   -1.8930 n         1 MOL     -0.604312
     20 C7         -7.4410    0.7070   -1.1770 c3        1 MOL      0.075593
     21 C8         -8.4220    1.2850   -0.1760 c         1 MOL      0.680282
     22 O5         -9.5470    1.6320   -0.5410 o         1 MOL     -0.597749
     23 C9         -7.1610    1.8070   -2.2500 c3        1 MOL     -0.091111
     24 C10        -6.4760    3.1060   -1.7960 c3        1 MOL      0.151532
     25 C11        -6.0850    4.0780   -2.8790 c3        1 MOL     -0.059459
     26 C12        -5.6920    5.4510   -2.2460 c3        1 MOL      0.246256
     27 N3         -6.8330    6.2970   -1.8360 n4        1 MOL     -0.428431
     28 H8         -8.6780   -0.3580   -2.6600 hn        1 MOL      0.335187
     29 H9         -6.5150    0.4400   -0.6630 h1        1 MOL      0.088457
     30 H10        -8.0700    2.1650   -2.7370 hc        1 MOL      0.033867
     31 H11        -6.5220    1.3650   -3.0210 hc        1 MOL      0.033867
     32 H12        -5.5510    2.8690   -1.2580 hc        1 MOL     -0.097946
     33 H13        -7.1410    3.5830   -1.0710 hc        1 MOL     -0.097946
     34 H14        -6.8940    4.2410   -3.5950 hc        1 MOL      0.025776
     35 H15        -5.2530    3.6630   -3.4490 hc        1 MOL      0.025776
     36 H16        -5.2460    6.0840   -3.0150 hx        1 MOL      0.006915
     37 H17        -4.9590    5.4240   -1.4390 hx        1 MOL      0.006915
     38 H18        -6.4340    7.1340   -1.4570 hn        1 MOL      0.334853
     39 H19        -7.4620    6.5240   -2.5870 hn        1 MOL      0.334853
     40 H20        -7.3290    5.8580   -1.0800 hn        1 MOL      0.334853
     41 N4         -7.9500    1.4290    1.0460 n         1 MOL     -0.567680
     42 C13        -8.5930    1.8400    2.3430 c3        1 MOL      0.540905
     43 C14        -7.5000    2.4540    3.2990 c         1 MOL      0.266900
     44 O6         -7.2430    1.8620    4.3430 o         1 MOL     -0.457475
     45 C15        -9.3140    0.5520    2.9270 c3        1 MOL     -0.637384
     46 C16        -8.5120   -0.7690    2.7530 c         1 MOL      0.866966
     47 O7         -9.0650   -1.8840    2.9030 o         1 MOL     -0.711638
     48 O8         -7.2820   -0.9280    2.5560 o         1 MOL     -0.711638
     49 H21        -7.0700    0.9360    1.1410 hn        1 MOL      0.235520
     50 H22        -9.4210    2.5380    2.2110 h1        1 MOL      0.001106
     51 H23       -10.2480    0.4630    2.3530 hc        1 MOL      0.162183
     52 H24        -9.5300    0.8050    3.9650 hc        1 MOL      0.162183
     53 N5         -6.9110    3.6170    2.9930 n         1 MOL     -0.253207
     54 C17        -7.1560    4.4970    1.9340 c3        1 MOL     -0.129133
     55 C18        -5.9000    5.3120    1.4680 c         1 MOL      0.627920
     56 O9         -6.0930    6.3520    0.8590 o         1 MOL     -0.624900
     57 H25        -6.0970    3.8660    3.5370 hn        1 MOL      0.278963
     58 H26        -8.0440    5.0750    2.1960 h1        1 MOL      0.052544
     59 H27        -7.4400    3.8890    1.0800 h1        1 MOL      0.052544
     60 N6         -4.6260    4.8840    1.6660 n         1 MOL     -0.354315
     61 C19        -3.4500    5.5640    1.0690 c3        1 MOL      0.137000
     62 C20        -2.3590    4.4930    0.9610 c         1 MOL      0.429203
     63 O10        -2.4760    3.3550    1.5090 o         1 MOL     -0.471134
     64 C21        -2.9450    6.6070    2.0740 c3        1 MOL     -0.335456
     65 C22        -2.3940    6.1500    3.4400 c         1 MOL      0.757985
     66 O11        -3.1330    6.0500    4.4010 o         1 MOL     -0.694319
     67 O12        -1.1500    5.8730    3.5440 o         1 MOL     -0.694319
     68 H28        -4.4280    3.9490    1.9860 hn        1 MOL      0.236553
     69 H29        -3.6270    6.0350    0.1060 h1        1 MOL      0.048273
     70 H30        -3.6910    7.4030    2.0740 hc        1 MOL      0.060651
     71 H31        -2.0880    7.0980    1.6060 hc        1 MOL      0.060651
     72 N7         -1.3690    4.6700    0.0570 n         1 MOL     -0.451340
     73 C23        -0.2810    3.7300   -0.1850 c3        1 MOL      0.006111
     74 C24        -0.4480    2.9640   -1.5350 c         1 MOL      0.484486
     75 O13        -0.7050    3.5560   -2.5960 o         1 MOL     -0.533403
     76 H32        -1.3880    5.5660   -0.4190 hn        1 MOL      0.295681
     77 H33        -0.2570    3.0250    0.6470 h1        1 MOL      0.100388
     78 H34         0.6400    4.3120   -0.1290 h1        1 MOL      0.100388
     79 N8         -0.3180    1.6300   -1.3960 n         1 MOL     -0.442322
     80 C25        -0.5150    0.6920   -2.5180 c3        1 MOL      0.033595
     81 C26         0.3560   -0.5320   -2.1620 c         1 MOL      0.398541
     82 O14         0.6020   -0.9310   -0.9930 o         1 MOL     -0.490222
     83 C27        -1.9620    0.2460   -2.6330 c3        1 MOL      0.185280
     84 C28        -2.9650    1.3650   -2.7850 c3        1 MOL     -0.463276
     85 O15        -2.0620   -0.5700   -3.7160 oh        1 MOL     -0.614382
     86 H35        -0.2140    1.2340   -0.4740 hn        1 MOL      0.259202
     87 H36        -0.1630    1.1130   -3.4640 h1        1 MOL      0.135186
     88 H37        -2.2320   -0.4370   -1.8290 h1        1 MOL      0.095403
     89 H38        -2.9450   -0.9290   -3.8320 ho        1 MOL      0.421562
     90 H39        -2.7980    1.8170   -3.7710 hc        1 MOL      0.152685
     91 H40        -3.9350    0.8750   -2.8890 hc        1 MOL      0.152685
     92 H41        -2.8740    2.0580   -1.9490 hc        1 MOL      0.152685
     93 N9          0.8630   -1.2060   -3.2080 n         1 MOL     -0.212401
     94 C29         1.7860   -2.2550   -3.1190 c3        1 MOL     -0.093731
     95 C30         3.1140   -1.8480   -2.4790 c         1 MOL      0.419736
     96 O16         3.7670   -2.6940   -1.8430 o         1 MOL     -0.479721
     97 C31         2.0080   -2.8910   -4.5170 c3        1 MOL      0.177732
     98 C32         0.8180   -3.3700   -5.2720 c3        1 MOL      0.040345
     99 C33         2.9840   -4.1510   -4.4550 c3        1 MOL     -0.348812
    100 C34        -0.2850   -4.0750   -4.5820 c3        1 MOL     -0.190194
    101 H42         0.5030   -0.9440   -4.1220 hn        1 MOL      0.220632
    102 H43         1.3750   -2.9850   -2.4250 h1        1 MOL      0.120379
    103 H44         2.4660   -2.1440   -5.1710 hc        1 MOL     -0.008027
    104 H45         1.0990   -3.8200   -6.2210 hc        1 MOL     -0.002216
    105 H46         0.4630   -2.4050   -5.6270 hc        1 MOL     -0.002216
    106 H47         3.9630   -3.9150   -4.0440 hc        1 MOL      0.097348
    107 H48         2.4690   -4.9290   -3.8870 hc        1 MOL      0.097348
    108 H49         3.1930   -4.4820   -5.4750 hc        1 MOL      0.097348
    109 H50         0.1400   -4.9770   -4.1530 hc        1 MOL      0.047430
    110 H51        -0.6060   -3.4850   -3.7210 hc        1 MOL      0.047430
    111 H52        -1.1430   -4.2490   -5.2320 hc        1 MOL      0.047430
    112 N10         3.4930   -0.5150   -2.5610 n         1 MOL     -0.351067
    113 C35         4.4840   -0.0070   -1.6030 c3        1 MOL     -0.062440
    114 C36         5.4450    1.0100   -2.2670 c         1 MOL      0.499606
    115 O17         5.0790    1.7760   -3.1740 o         1 MOL     -0.515152
    116 C37         3.8850    0.6560   -0.3320 c3        1 MOL      0.617923
    117 C38         3.2010    1.9720   -0.6030 c3        1 MOL     -0.535569
    118 O18         3.0280   -0.2630    0.2840 oh        1 MOL     -0.699142
    119 H53         2.9420    0.1330   -3.1090 hn        1 MOL      0.201794
    120 H54         5.0280   -0.8350   -1.1580 h1        1 MOL      0.076248
    121 H55         4.7320    0.8680    0.3220 h1        1 MOL     -0.006427
    122 H56         2.2810   -0.4640   -0.2900 ho        1 MOL      0.435225
    123 H57         2.4670    1.9780   -1.4040 hc        1 MOL      0.115639
    124 H58         2.8490    2.3380    0.3640 hc        1 MOL      0.115639
    125 H59         3.9620    2.7220   -0.8420 hc        1 MOL      0.115639
    126 N11         6.6660    1.1010   -1.6810 n         1 MOL     -0.437760
    127 C39         7.6610    2.1570   -1.9640 c3        1 MOL      0.016519
    128 C40         9.1130    1.7000   -1.7200 c         1 MOL      0.519061
    129 O19         9.7360    1.3100   -2.7230 o         1 MOL     -0.545372
    130 C41         7.2420    3.4410   -1.1320 c3        1 MOL      0.208759
    131 C42         8.0890    4.6780   -1.4920 c3        1 MOL     -0.366887
    132 O20         7.3770    3.1730    0.2560 oh        1 MOL     -0.657355
    133 H60         6.9470    0.4710   -0.9370 hn        1 MOL      0.264936
    134 H61         7.4840    2.3210   -3.0280 h1        1 MOL      0.108831
    135 H62         6.2040    3.6650   -1.3860 h1        1 MOL      0.059089
    136 H63         7.0490    3.9570    0.7110 ho        1 MOL      0.443047
    137 H64         9.0810    4.3510   -1.7850 hc        1 MOL      0.097642
    138 H65         7.6180    5.0180   -2.4120 hc        1 MOL      0.097642
    139 H66         8.1050    5.4460   -0.7140 hc        1 MOL      0.097642
    140 N12         9.6270    1.6210   -0.4500 n         1 MOL     -0.309263
    141 C43        10.8650    0.8610   -0.1170 c3        1 MOL      0.139479
    142 C44        10.4560   -0.0470    1.0240 c         1 MOL      0.483740
    143 O21         9.4240    0.1700    1.7000 o         1 MOL     -0.488832
    144 C45        12.0270    1.8580    0.0570 c3        1 MOL     -0.285948
    145 C46        13.4020    1.2280    0.0650 c3        1 MOL      0.165493
    146 C47        14.4700    2.1500    0.5860 c3        1 MOL     -0.086271
    147 C48        15.8930    1.5590    0.5600 c3        1 MOL      0.078439
    148 N13        16.9230    2.6340    0.8710 n4        1 MOL     -0.197856
    149 H67         9.1200    2.0890    0.2850 hn        1 MOL      0.251356
    150 H68        11.2090    0.2440   -0.9550 h1        1 MOL      0.047059
    151 H69        11.9380    2.4350    0.9810 hc        1 MOL      0.082436
    152 H70        11.8000    2.5550   -0.7400 hc        1 MOL      0.082436
    153 H71        13.6250    1.0540   -0.9900 hc        1 MOL      0.000853
    154 H72        13.4700    0.2400    0.5190 hc        1 MOL      0.000853
    155 H73        14.2570    2.3950    1.6290 hc        1 MOL      0.034025
    156 H74        14.3970    3.0280   -0.0630 hc        1 MOL      0.034025
    157 H75        16.0020    1.2160   -0.4710 hx        1 MOL      0.066543
    158 H76        15.9890    0.7040    1.2320 hx        1 MOL      0.066543
    159 H77        16.8190    3.4400    0.2750 hn        1 MOL      0.226321
    160 H78        16.7590    2.9600    1.8160 hn        1 MOL      0.226321
    161 H79        17.8630    2.2850    0.8610 hn        1 MOL      0.226321
    162 N14        11.1870   -1.1420    1.2640 n         1 MOL     -0.558582
    163 C49        10.8680   -2.2120    2.2560 c3        1 MOL      0.513998
    164 C50         9.4530   -2.8190    2.1540 c         1 MOL      0.237805
    165 O22         8.7080   -2.6180    3.1580 o         1 MOL     -0.490785
    166 C51        12.1020   -3.0910    2.3480 c3        1 MOL     -0.188897
    167 C52        12.1170   -4.1910    3.4430 c3        1 MOL     -0.181802
    168 C53        13.5060   -4.7120    3.7110 c         1 MOL      0.733477
    169 O23        13.9320   -4.8930    4.8780 o         1 MOL     -0.665379
    170 O24        14.1900   -5.0790    2.7490 o         1 MOL     -0.665379
    171 H80        12.0830   -1.1420    0.7940 hn        1 MOL      0.233160
    172 H81        10.8620   -1.7420    3.2440 h1        1 MOL     -0.014353
    173 H82        12.9340   -2.4270    2.5480 hc        1 MOL      0.031038
    174 H83        12.2960   -3.5700    1.3930 hc        1 MOL      0.031038
    175 H84        11.4890   -5.0010    3.0540 hc        1 MOL      0.042252
    176 H85        11.5810   -3.7520    4.2890 hc        1 MOL      0.042252
    177 N15         9.1040   -3.5880    1.1110 n         1 MOL     -0.244209
    178 C54         9.8030   -3.9110   -0.1920 c3        1 MOL     -0.136307
    179 H86        10.2610   -3.0060   -0.5920 h1        1 MOL      0.081565
    180 H87        10.5750   -4.6600   -0.0150 h1        1 MOL      0.081565
    181 H88         9.0780   -4.2970   -0.9080 h1        1 MOL      0.081565
    182 H89         8.2380   -4.1020    1.1580 hn        1 MOL      0.267200
    183 Ca1        -7.1430   -3.4970    2.0970 Ca        1 MOL      1.670219
    184 O25        -4.8360   -2.5450    3.4230 oh        1 MOL     -0.771194
    185 H90        -4.3540   -2.9260    4.1640 ho        1 MOL      0.385772
    186 H91        -4.2090   -1.9450    3.0180 ho        1 MOL      0.385772
    187 O26        -7.2820   -3.4580    4.8740 oh        1 MOL     -0.771194
    188 H92        -6.9760   -4.1980    5.4110 ho        1 MOL      0.385772
    189 H93        -7.0480   -2.6800    5.3910 ho        1 MOL      0.385772
    190 O27        -7.1120   -5.7610    0.6390 oh        1 MOL     -0.771194
    191 H94        -7.9860   -6.1510    0.5810 ho        1 MOL      0.385772
    192 H95        -6.5210   -6.5040    0.6850 ho        1 MOL      0.385772
    193 O28        -8.7370   -5.5780    3.0950 oh        1 MOL     -0.771194
    194 H96        -8.8970   -5.4420    4.0230 ho        1 MOL      0.385772
    195 H97        -8.4460   -6.4800    3.0270 ho        1 MOL      0.385772
    196 O29        -5.0370   -3.6020    0.4480 oh        1 MOL     -0.771194
    197 H98        -4.7500   -4.3300    0.9910 ho        1 MOL      0.385772
    198 H99        -4.3650   -3.5190   -0.2350 ho        1 MOL      0.385772
    199 O30        -5.5290   -5.4410    3.3060 oh        1 MOL     -0.771194
    200 H100       -5.9230   -6.2890    3.4770 ho        1 MOL      0.385772
    201 H101       -5.2050   -5.1490    4.1520 ho        1 MOL      0.385772
@<TRIPOS>BOND
     1    1    2 1   
     2    1    4 1   
     3    1    5 1   
     4    1    6 1   
     5    2    3 2   
     6    2    7 1   
     7    7    8 1   
     8    7   15 1   
     9    8    9 1   
    10    8   11 1   
    11    8   16 1   
    12    9   10 2   
    13    9   19 1   
    14   11   12 1   
    15   11   17 1   
    16   11   18 1   
    17   12   13 1   
    18   12   14 1   
    19   19   20 1   
    20   19   28 1   
    21   20   21 1   
    22   20   23 1   
    23   20   29 1   
    24   21   22 2   
    25   21   41 1   
    26   23   24 1   
    27   23   30 1   
    28   23   31 1   
    29   24   25 1   
    30   24   32 1   
    31   24   33 1   
    32   25   26 1   
    33   25   34 1   
    34   25   35 1   
    35   26   27 1   
    36   26   36 1   
    37   26   37 1   
    38   27   38 1   
    39   27   39 1   
    40   27   40 1   
    41   41   42 1   
    42   41   49 1   
    43   42   43 1   
    44   42   45 1   
    45   42   50 1   
    46   43   44 2   
    47   43   53 1   
    48   45   46 1   
    49   45   51 1   
    50   45   52 1   
    51   46   47 1   
    52   46   48 1   
    53   53   54 1   
    54   53   57 1   
    55   54   55 1   
    56   54   58 1   
    57   54   59 1   
    58   55   56 2   
    59   55   60 1   
    60   60   61 1   
    61   60   68 1   
    62   61   62 1   
    63   61   64 1   
    64   61   69 1   
    65   62   63 2   
    66   62   72 1   
    67   64   65 1   
    68   64   70 1   
    69   64   71 1   
    70   65   66 1   
    71   65   67 1   
    72   72   73 1   
    73   72   76 1   
    74   73   74 1   
    75   73   77 1   
    76   73   78 1   
    77   74   75 2   
    78   74   79 1   
    79   79   80 1   
    80   79   86 1   
    81   80   81 1   
    82   80   83 1   
    83   80   87 1   
    84   81   82 2   
    85   81   93 1   
    86   83   84 1   
    87   83   85 1   
    88   83   88 1   
    89   84   90 1   
    90   84   91 1   
    91   84   92 1   
    92   85   89 1   
    93   93   94 1   
    94   93  101 1   
    95   94   95 1   
    96   94   97 1   
    97   94  102 1   
    98   95   96 2   
    99   95  112 1   
   100   97   98 1   
   101   97   99 1   
   102   97  103 1   
   103   98  100 1   
   104   98  104 1   
   105   98  105 1   
   106   99  106 1   
   107   99  107 1   
   108   99  108 1   
   109  100  109 1   
   110  100  110 1   
   111  100  111 1   
   112  112  113 1   
   113  112  119 1   
   114  113  114 1   
   115  113  116 1   
   116  113  120 1   
   117  114  115 2   
   118  114  126 1   
   119  116  117 1   
   120  116  118 1   
   121  116  121 1   
   122  117  123 1   
   123  117  124 1   
   124  117  125 1   
   125  118  122 1   
   126  126  127 1   
   127  126  133 1   
   128  127  128 1   
   129  127  130 1   
   130  127  134 1   
   131  128  129 2   
   132  128  140 1   
   133  130  131 1   
   134  130  132 1   
   135  130  135 1   
   136  131  137 1   
   137  131  138 1   
   138  131  139 1   
   139  132  136 1   
   140  140  141 1   
   141  140  149 1   
   142  141  142 1   
   143  141  144 1   
   144  141  150 1   
   145  142  143 2   
   146  142  162 1   
   147  144  145 1   
   148  144  151 1   
   149  144  152 1   
   150  145  146 1   
   151  145  153 1   
   152  145  154 1   
   153  146  147 1   
   154  146  155 1   
   155  146  156 1   
   156  147  148 1   
   157  147  157 1   
   158  147  158 1   
   159  148  159 1   
   160  148  160 1   
   161  148  161 1   
   162  162  163 1   
   163  162  171 1   
   164  163  164 1   
   165  163  166 1   
   166  163  172 1   
   167  164  165 2   
   168  164  177 1   
   169  166  167 1   
   170  166  173 1   
   171  166  174 1   
   172  167  168 1   
   173  167  175 1   
   174  167  176 1   
   175  168  169 1   
   176  168  170 1   
   177  177  178 1   
   178  177  182 1   
   179  178  179 1   
   180  178  180 1   
   181  178  181 1   
   182  184  185 1   
   183  184  186 1   
   184  187  188 1   
   185  187  189 1   
   186  190  191 1   
   187  190  192 1   
   188  193  194 1   
   189  193  195 1   
   190  196  197 1   
   191  196  198 1   
   192  199  200 1   
   193  199  201 1   
@<TRIPOS>SUBSTRUCTURE
     1 MOL         1 TEMP              0 ****  ****    0 ROOT
