@<TRIPOS>MOLECULE
MOL
  192   187     1     0     0
SMALL
resp


@<TRIPOS>ATOM
      1 C1          4.5630    3.5540   -3.8560 c3        1 MOL     -0.440393
      2 C2          5.3510    3.0450   -2.6000 c         1 MOL      0.786178
      3 O1          4.8070    2.9240   -1.4910 o         1 MOL     -0.637571
      4 H1          3.8690    2.7810   -4.1870 hc        1 MOL      0.112372
      5 H2          4.0060    4.4540   -3.5950 hc        1 MOL      0.112372
      6 H3          5.2650    3.7800   -4.6580 hc        1 MOL      0.112372
      7 N1          6.6380    2.6930   -2.8010 n         1 MOL     -0.492396
      8 C3          7.2930    1.6950   -1.9040 c3        1 MOL      0.220314
      9 C4          6.3540    0.4940   -1.5810 c         1 MOL      0.154302
     10 O2          5.8350    0.3320   -0.4570 o         1 MOL     -0.256005
     11 C5          8.0360    2.2930   -0.6520 c3        1 MOL     -0.129624
     12 C6          7.4110    3.5340   -0.0240 c         1 MOL      0.717097
     13 O3          6.5780    3.4540    0.9220 o         1 MOL     -0.721108
     14 O4          7.5810    4.5560   -0.6450 o         1 MOL     -0.721108
     15 H4          7.0440    2.7830   -3.7170 hn        1 MOL      0.270824
     16 H5          8.0570    1.1740   -2.4750 h1        1 MOL      0.025602
     17 H6          9.0070    2.6420   -1.0030 hc        1 MOL      0.016694
     18 H7          8.1520    1.5910    0.1700 hc        1 MOL      0.016694
     19 N2          5.9080   -0.2510   -2.6070 n         1 MOL     -0.296853
     20 C7          4.9960   -1.4190   -2.7150 c3        1 MOL      0.001799
     21 C8          5.5970   -2.6410   -2.0830 c         1 MOL      0.439182
     22 O5          5.8260   -3.6330   -2.8010 o         1 MOL     -0.555013
     23 C9          3.5220   -1.0760   -2.3980 c3        1 MOL      0.267741
     24 C10         2.5480   -2.2050   -2.7670 c3        1 MOL     -0.092052
     25 C11         3.1340    0.1900   -3.2010 c3        1 MOL     -0.085764
     26 C12         2.4160   -2.5660   -4.2960 c3        1 MOL     -0.642282
     27 H8          6.2580   -0.0010   -3.5230 hn        1 MOL      0.217836
     28 H9          5.0180   -1.6740   -3.7660 h1        1 MOL      0.066676
     29 H10         3.4940   -0.8350   -1.3460 hc        1 MOL     -0.190682
     30 H11         1.5920   -1.8290   -2.4190 hc        1 MOL      0.160818
     31 H12         2.7770   -3.0880   -2.1620 hc        1 MOL      0.160818
     32 H13         2.0940    0.4280   -2.9710 hc        1 MOL     -0.004102
     33 H14         3.7630    1.0270   -2.9030 hc        1 MOL     -0.004102
     34 H15         3.3870    0.1160   -4.2640 hc        1 MOL     -0.004102
     35 H16         3.3390   -2.5950   -4.8570 hc        1 MOL      0.158258
     36 H17         1.8630   -3.4960   -4.4090 hc        1 MOL      0.158258
     37 H18         1.6750   -1.8900   -4.7130 hc        1 MOL      0.158258
     38 N3          6.0730   -2.5760   -0.8130 n         1 MOL     -0.159008
     39 C13         6.7080   -3.6720   -0.0360 c3        1 MOL     -0.153602
     40 C14         5.7830   -4.8470    0.2990 c         1 MOL      0.667954
     41 O6          6.2220   -5.9520    0.1680 o         1 MOL     -0.605317
     42 C15         7.2720   -3.1030    1.2550 c3        1 MOL     -0.126417
     43 C16         8.2130   -1.8650    1.0500 c         1 MOL      0.751380
     44 O7          9.0730   -1.9650    0.1570 o         1 MOL     -0.708054
     45 O8          8.1550   -1.0210    1.9420 o         1 MOL     -0.708054
     46 H19         5.7100   -1.8210   -0.2510 hn        1 MOL      0.127622
     47 H20         7.5540   -4.0440   -0.6090 h1        1 MOL      0.103660
     48 H21         7.8330   -3.9070    1.7260 hc        1 MOL      0.029396
     49 H22         6.5070   -2.7120    1.9200 hc        1 MOL      0.029396
     50 N4          4.4910   -4.8270    0.6870 n         1 MOL     -0.604138
     51 C17         3.7090   -3.6000    1.0090 c3        1 MOL      0.273576
     52 C18         2.5540   -3.9780    1.9400 c         1 MOL      0.553851
     53 O9          2.1930   -5.1980    2.0150 o         1 MOL     -0.589686
     54 H23         4.1890   -5.7220    1.0400 hn        1 MOL      0.312233
     55 H24         3.2770   -3.2640    0.0690 h1        1 MOL     -0.040435
     56 H25         4.3080   -2.8790    1.5610 h1        1 MOL     -0.040435
     57 N5          1.9520   -3.0790    2.7680 n         1 MOL     -0.614530
     58 C19         2.2430   -1.6170    2.9310 c3        1 MOL      0.491005
     59 C20         2.3230   -0.8010    1.6360 c         1 MOL      0.292949
     60 O10         3.3650   -0.1960    1.3460 o         1 MOL     -0.525488
     61 C21         3.4690   -1.5080    3.9130 c3        1 MOL     -0.353496
     62 C22         3.6830   -0.1970    4.6480 c         1 MOL      0.785601
     63 O11         2.6850    0.3740    5.1570 o         1 MOL     -0.685486
     64 O12         4.8100    0.2590    4.7880 o         1 MOL     -0.685486
     65 H26         1.1930   -3.3840    3.3610 hn        1 MOL      0.334153
     66 H27         1.5440   -1.1090    3.5890 h1        1 MOL     -0.062542
     67 H28         4.3520   -1.6830    3.2940 hc        1 MOL      0.078005
     68 H29         3.4480   -2.2600    4.6940 hc        1 MOL      0.078005
     69 N6          1.2790   -0.7070    0.7870 n         1 MOL     -0.343154
     70 C23        -0.0680   -1.3160    1.0190 c3        1 MOL     -0.093846
     71 C24        -0.1560   -2.6480    0.3450 c         1 MOL      0.465639
     72 O13         0.7270   -3.1610   -0.3500 o         1 MOL     -0.523164
     73 H30         1.3940   -0.1040   -0.0130 hn        1 MOL      0.330972
     74 H31        -0.8260   -0.7110    0.5290 h1        1 MOL      0.079658
     75 H32        -0.2920   -1.3420    2.0790 h1        1 MOL      0.079658
     76 N7         -1.3070   -3.2910    0.6110 n         1 MOL     -0.063104
     77 C25        -1.6970   -4.5970    0.0830 c3        1 MOL     -0.345961
     78 C26        -2.2730   -4.4090   -1.3880 c         1 MOL      0.562763
     79 O14        -2.2880   -5.3240   -2.1760 o         1 MOL     -0.509229
     80 C27        -2.7730   -5.0270    1.0900 c3        1 MOL      0.434546
     81 C28        -2.2330   -5.3520    2.5100 c3        1 MOL     -0.613073
     82 C29        -1.7100   -4.1440    3.2900 c         1 MOL      0.756442
     83 N8         -2.4610   -3.0600    3.3850 n         1 MOL     -0.864467
     84 O15        -0.6220   -4.1560    3.8010 o         1 MOL     -0.540526
     85 H33        -1.9650   -2.8080    1.2110 hn        1 MOL      0.128304
     86 H34        -0.9380   -5.3790    0.1160 h1        1 MOL      0.210997
     87 H35        -3.3120   -5.8980    0.7140 hc        1 MOL     -0.091074
     88 H36        -3.5550   -4.2950    1.2830 hc        1 MOL     -0.091074
     89 H37        -1.4370   -6.0450    2.2340 hc        1 MOL      0.179760
     90 H38        -3.0230   -5.9390    2.9830 hc        1 MOL      0.179760
     91 H39        -3.3980   -3.0970    3.0140 hn        1 MOL      0.396824
     92 H40        -2.1680   -2.3120    4.0040 hn        1 MOL      0.396824
     93 N9         -2.8230   -3.2510   -1.7430 n         1 MOL     -0.503028
     94 C30        -3.4530   -3.0060   -3.0720 c3        1 MOL     -0.090419
     95 C31        -4.8570   -2.3420   -3.0970 c         1 MOL      0.503640
     96 O16        -5.3600   -2.2030   -4.2080 o         1 MOL     -0.541266
     97 C32        -2.5350   -2.1800   -3.9570 c3        1 MOL      0.143908
     98 C33        -1.2450   -2.8090   -4.3020 c3        1 MOL     -0.116673
     99 C34        -2.3110   -0.7170   -3.3620 c3        1 MOL     -0.116673
    100 H41        -2.9720   -2.5560   -1.0180 hn        1 MOL      0.238110
    101 H42        -3.5640   -3.9950   -3.5190 h1        1 MOL      0.147802
    102 H43        -3.0060   -2.0820   -4.9340 hc        1 MOL      0.009681
    103 H44        -0.5110   -3.0080   -3.5260 hc        1 MOL      0.025663
    104 H45        -1.3920   -3.7770   -4.7830 hc        1 MOL      0.025663
    105 H46        -0.7640   -2.1680   -5.0370 hc        1 MOL      0.025663
    106 H47        -1.9300   -0.0910   -4.1650 hc        1 MOL      0.025663
    107 H48        -3.2720   -0.3530   -2.9980 hc        1 MOL      0.025663
    108 H49        -1.5510   -0.7240   -2.5880 hc        1 MOL      0.025663
    109 N10        -5.5580   -2.0260   -1.9910 n         1 MOL     -0.307785
    110 C35        -7.0340   -1.6040   -2.0280 c3        1 MOL      0.070078
    111 C36        -7.2200   -0.1370   -1.4540 c         1 MOL      0.538849
    112 O17        -8.2970    0.4470   -1.5160 o         1 MOL     -0.556058
    113 C37        -7.9710   -2.5700   -1.2800 c3        1 MOL     -0.428536
    114 C38        -7.9010   -3.9720   -1.9060 c         1 MOL      0.635544
    115 N11        -7.9280   -4.1650   -3.1850 n         1 MOL     -0.693123
    116 O18        -7.8120   -4.9920   -1.2290 o         1 MOL     -0.560756
    117 H50        -5.0840   -2.0640   -1.0970 hn        1 MOL      0.285700
    118 H51        -7.3030   -1.5390   -3.0840 h1        1 MOL      0.065690
    119 H52        -8.9890   -2.2020   -1.4100 hc        1 MOL      0.142031
    120 H53        -7.6100   -2.5550   -0.2530 hc        1 MOL      0.142031
    121 H54        -8.1670   -3.3760   -3.7610 hn        1 MOL      0.346295
    122 H55        -8.0220   -5.1060   -3.5510 hn        1 MOL      0.346295
    123 N12        -6.2360    0.4240   -0.7750 n         1 MOL     -0.567890
    124 C39        -6.3230    1.6840   -0.0170 c3        1 MOL      0.651260
    125 C40        -5.0280    2.4830   -0.0300 c         1 MOL      0.120206
    126 O19        -3.9400    1.9660   -0.1730 o         1 MOL     -0.460675
    127 C41        -6.5520    1.2530    1.4850 c3        1 MOL     -0.015574
    128 C42        -7.9280    0.7330    1.8260 ca        1 MOL     -0.102209
    129 C43        -9.0670    1.5320    1.5980 ca        1 MOL     -0.029779
    130 C44        -8.0290   -0.5350    2.4370 ca        1 MOL     -0.029779
    131 C45       -10.3320    1.0100    1.9580 ca        1 MOL     -0.321354
    132 C46        -9.3330   -1.0650    2.7800 ca        1 MOL     -0.321354
    133 C47       -10.4720   -0.2900    2.5460 ca        1 MOL      0.356431
    134 O20       -11.7130   -0.7500    2.7930 oh        1 MOL     -0.481239
    135 H56        -5.4280   -0.1690   -0.6750 hn        1 MOL      0.209510
    136 H57        -7.0590    2.3520   -0.4780 h1        1 MOL     -0.049793
    137 H58        -6.3820    2.1380    2.1040 hc        1 MOL      0.021713
    138 H59        -5.8420    0.5160    1.8590 hc        1 MOL      0.021713
    139 H60        -8.9490    2.5150    1.1760 ha        1 MOL      0.091379
    140 H61        -7.1290   -1.0700    2.6740 ha        1 MOL      0.091379
    141 H62       -11.1620    1.6830    1.7830 ha        1 MOL      0.152426
    142 H63        -9.5700   -2.0220    3.2100 ha        1 MOL      0.152426
    143 H64       -11.6830   -1.6480    3.1320 ho        1 MOL      0.350371
    144 N13        -5.1600    3.7690    0.2820 n         1 MOL     -0.396227
    145 C48        -4.1210    4.7830    0.6110 c3        1 MOL      0.058563
    146 C49        -3.0660    5.1490   -0.4250 c         1 MOL      0.626009
    147 O21        -2.7400    6.3330   -0.6300 o         1 MOL     -0.585693
    148 C50        -3.4850    4.2980    1.9270 c3        1 MOL      0.053932
    149 C51        -4.3690    4.7100    3.1130 c3        1 MOL     -0.196443
    150 C52        -3.7870    4.2270    4.4280 c         1 MOL      0.700665
    151 O22        -2.5260    4.2210    4.5960 o         1 MOL     -0.728690
    152 O23        -4.5670    3.9370    5.3490 o         1 MOL     -0.728690
    153 H65        -6.1150    4.0750    0.2290 hn        1 MOL      0.269035
    154 H66        -4.6300    5.7420    0.7500 h1        1 MOL      0.019225
    155 H67        -2.5140    4.7830    2.0150 hc        1 MOL      0.051089
    156 H68        -3.2080    3.2360    1.9080 hc        1 MOL      0.051089
    157 H69        -5.3790    4.3060    3.0230 hc        1 MOL      0.017107
    158 H70        -4.3330    5.7850    3.2400 hc        1 MOL      0.017107
    159 N14        -2.5110    4.2080   -1.1320 n         1 MOL     -0.668487
    160 C53        -1.2850    4.4420   -1.9170 c3        1 MOL     -0.073228
    161 C54        -1.3950    5.3170   -3.1500 c         1 MOL      0.522763
    162 O24        -0.3840    5.5070   -3.8280 o         1 MOL     -0.557003
    163 C55        -0.5640    3.1660   -2.3090 c3        1 MOL     -0.240409
    164 C56        -0.2560    2.2160   -1.0580 c3        1 MOL      0.309758
    165 C57         0.8440    2.7630   -0.1470 c         1 MOL      0.614278
    166 O25         1.9000    2.1570   -0.0960 o         1 MOL     -0.639090
    167 O26         0.5800    3.8550    0.4680 o         1 MOL     -0.639090
    168 H71        -2.7460    3.2430   -0.9790 hn        1 MOL      0.441564
    169 H72        -0.5680    4.9380   -1.2670 h1        1 MOL      0.179223
    170 H73         0.3880    3.3750   -2.7970 hc        1 MOL      0.090468
    171 H74        -1.1950    2.5460   -2.9360 hc        1 MOL      0.090468
    172 H75         0.0630    1.2300   -1.4080 hc        1 MOL     -0.146203
    173 H76        -1.1540    2.0160   -0.4680 hc        1 MOL     -0.146203
    174 N15        -2.6080    5.6780   -3.5260 n         1 MOL     -0.240838
    175 C58        -2.9020    6.4220   -4.7340 c3        1 MOL     -0.144423
    176 H77        -3.6810    5.9070   -5.2970 h1        1 MOL      0.069711
    177 H78        -3.2460    7.4220   -4.4710 h1        1 MOL      0.069711
    178 H79        -2.0030    6.4950   -5.3450 h1        1 MOL      0.069711
    179 H80        -3.3480    5.7050   -2.8450 hn        1 MOL      0.234410
    180 Ca1         4.2230    2.2890    1.0380 Ca        1 MOL      1.726763
    181 O27         3.1630    4.6070    1.0790 oh        1 MOL     -0.840490
    182 H81         2.2420    4.3960    0.9040 ho        1 MOL      0.385519
    183 H82         3.1380    5.1630    1.8530 ho        1 MOL      0.385519
    184 O28         6.0540    1.0090    2.5780 oh        1 MOL     -0.840490
    185 H83         6.6780    0.3220    2.3300 ho        1 MOL      0.385519
    186 H84         5.6360    0.6750    3.3710 ho        1 MOL      0.385519
    187 O29         2.5560    1.9960    3.0750 oh        1 MOL     -0.840490
    188 H85         2.7390    1.5690    3.9070 ho        1 MOL      0.385519
    189 H86         1.7340    2.4650    3.2130 ho        1 MOL      0.385519
    190 O30         5.3460    4.0020    3.1100 oh        1 MOL     -0.840490
    191 H87         6.0260    3.8250    2.4520 ho        1 MOL      0.385519
    192 H88         5.6630    4.7700    3.5830 ho        1 MOL      0.385519
@<TRIPOS>BOND
     1    1    2 1   
     2    1    4 1   
     3    1    5 1   
     4    1    6 1   
     5    2    3 2   
     6    2    7 1   
     7    7    8 1   
     8    7   15 1   
     9    8    9 1   
    10    8   11 1   
    11    8   16 1   
    12    9   10 2   
    13    9   19 1   
    14   11   12 1   
    15   11   17 1   
    16   11   18 1   
    17   12   13 1   
    18   12   14 1   
    19   19   20 1   
    20   19   27 1   
    21   20   21 1   
    22   20   23 1   
    23   20   28 1   
    24   21   22 2   
    25   21   38 1   
    26   23   24 1   
    27   23   25 1   
    28   23   29 1   
    29   24   26 1   
    30   24   30 1   
    31   24   31 1   
    32   25   32 1   
    33   25   33 1   
    34   25   34 1   
    35   26   35 1   
    36   26   36 1   
    37   26   37 1   
    38   38   39 1   
    39   38   46 1   
    40   39   40 1   
    41   39   42 1   
    42   39   47 1   
    43   40   41 2   
    44   40   50 1   
    45   42   43 1   
    46   42   48 1   
    47   42   49 1   
    48   43   44 1   
    49   43   45 1   
    50   50   51 1   
    51   50   54 1   
    52   51   52 1   
    53   51   55 1   
    54   51   56 1   
    55   52   53 2   
    56   52   57 1   
    57   57   58 1   
    58   57   65 1   
    59   58   59 1   
    60   58   61 1   
    61   58   66 1   
    62   59   60 2   
    63   59   69 1   
    64   61   62 1   
    65   61   67 1   
    66   61   68 1   
    67   62   63 1   
    68   62   64 1   
    69   69   70 1   
    70   69   73 1   
    71   70   71 1   
    72   70   74 1   
    73   70   75 1   
    74   71   72 2   
    75   71   76 1   
    76   76   77 1   
    77   76   85 1   
    78   77   78 1   
    79   77   80 1   
    80   77   86 1   
    81   78   79 2   
    82   78   93 1   
    83   80   81 1   
    84   80   87 1   
    85   80   88 1   
    86   81   82 1   
    87   81   89 1   
    88   81   90 1   
    89   82   83 1   
    90   82   84 2   
    91   83   91 1   
    92   83   92 1   
    93   93   94 1   
    94   93  100 1   
    95   94   95 1   
    96   94   97 1   
    97   94  101 1   
    98   95   96 2   
    99   95  109 1   
   100   97   98 1   
   101   97   99 1   
   102   97  102 1   
   103   98  103 1   
   104   98  104 1   
   105   98  105 1   
   106   99  106 1   
   107   99  107 1   
   108   99  108 1   
   109  109  110 1   
   110  109  117 1   
   111  110  111 1   
   112  110  113 1   
   113  110  118 1   
   114  111  112 2   
   115  111  123 1   
   116  113  114 1   
   117  113  119 1   
   118  113  120 1   
   119  114  115 1   
   120  114  116 2   
   121  115  121 1   
   122  115  122 1   
   123  123  124 1   
   124  123  135 1   
   125  124  125 1   
   126  124  127 1   
   127  124  136 1   
   128  125  126 2   
   129  125  144 1   
   130  127  128 1   
   131  127  137 1   
   132  127  138 1   
   133  128  129 ar  
   134  128  130 ar  
   135  129  131 ar  
   136  129  139 1   
   137  130  132 ar  
   138  130  140 1   
   139  131  133 ar  
   140  131  141 1   
   141  132  133 ar  
   142  132  142 1   
   143  133  134 1   
   144  134  143 1   
   145  144  145 1   
   146  144  153 1   
   147  145  146 1   
   148  145  148 1   
   149  145  154 1   
   150  146  147 2   
   151  146  159 1   
   152  148  149 1   
   153  148  155 1   
   154  148  156 1   
   155  149  150 1   
   156  149  157 1   
   157  149  158 1   
   158  150  151 1   
   159  150  152 1   
   160  159  160 1   
   161  159  168 1   
   162  160  161 1   
   163  160  163 1   
   164  160  169 1   
   165  161  162 2   
   166  161  174 1   
   167  163  164 1   
   168  163  170 1   
   169  163  171 1   
   170  164  165 1   
   171  164  172 1   
   172  164  173 1   
   173  165  166 1   
   174  165  167 1   
   175  174  175 1   
   176  174  179 1   
   177  175  176 1   
   178  175  177 1   
   179  175  178 1   
   180  181  182 1   
   181  181  183 1   
   182  184  185 1   
   183  184  186 1   
   184  187  188 1   
   185  187  189 1   
   186  190  191 1   
   187  190  192 1   
@<TRIPOS>SUBSTRUCTURE
     1 MOL         1 TEMP              0 ****  ****    0 ROOT
