@<TRIPOS>MOLECULE
MOL
  189   185     1     0     0
SMALL
resp


@<TRIPOS>ATOM
      1 C1         -5.2180   -4.0760    3.1500 c3        1 MOL     -0.161428
      2 C2         -3.9780   -3.7740    2.2460 c         1 MOL      0.823692
      3 O1         -3.2350   -2.7690    2.4550 o         1 MOL     -0.519916
      4 H1         -5.1130   -3.5460    4.0960 hc        1 MOL      0.015837
      5 H2         -6.1260   -3.7430    2.6460 hc        1 MOL      0.015837
      6 H3         -5.2790   -5.1480    3.3380 hc        1 MOL      0.015837
      7 N1         -3.7480   -4.5780    1.1870 n         1 MOL     -1.006815
      8 C3         -2.7590   -4.3080    0.1450 c3        1 MOL      0.465582
      9 C4         -1.2450   -4.1360    0.5400 c         1 MOL      0.511033
     10 O2         -0.4590   -3.4720   -0.1000 o         1 MOL     -0.509036
     11 C5         -3.2640   -3.1900   -0.8430 c3        1 MOL     -1.064102
     12 C6         -4.8370   -3.0750   -0.9980 c         1 MOL      1.320148
     13 O3         -5.5490   -4.0460   -1.4030 o         1 MOL     -0.831240
     14 O4         -5.4620   -2.0690   -0.6060 o         1 MOL     -0.831240
     15 H4         -4.2870   -5.4290    1.1230 hn        1 MOL      0.365652
     16 H5         -2.7400   -5.1680   -0.5200 h1        1 MOL      0.062545
     17 H6         -2.8030   -3.2490   -1.8330 hc        1 MOL      0.259341
     18 H7         -2.8460   -2.2530   -0.4710 hc        1 MOL      0.259341
     19 N2         -0.8990   -4.7490    1.6740 n         1 MOL     -0.604145
     20 C7          0.4090   -4.8720    2.3580 c3        1 MOL      0.046406
     21 C8          1.1730   -6.0830    1.7610 c         1 MOL      0.610066
     22 O5          0.9230   -7.2140    2.0670 o         1 MOL     -0.571818
     23 C9          0.3080   -5.0680    3.8130 c3        1 MOL      0.193714
     24 C10        -0.3830   -3.8810    4.4820 c3        1 MOL      0.016772
     25 C11         1.5540   -5.3650    4.6190 c3        1 MOL     -0.312714
     26 C12        -0.5770   -3.9620    6.0260 c3        1 MOL     -0.253104
     27 H8         -1.6470   -5.3390    2.0190 hn        1 MOL      0.347637
     28 H9          0.9620   -3.9330    2.3420 h1        1 MOL      0.055984
     29 H10        -0.3630   -5.9200    3.8450 hc        1 MOL     -0.054636
     30 H11        -1.3760   -3.6840    4.0730 hc        1 MOL      0.051415
     31 H12         0.1850   -2.9910    4.2240 hc        1 MOL      0.051415
     32 H13         1.9830   -6.2700    4.1840 hc        1 MOL      0.075523
     33 H14         2.3060   -4.5820    4.5850 hc        1 MOL      0.075523
     34 H15         1.2440   -5.5910    5.6460 hc        1 MOL      0.075523
     35 H16         0.3380   -3.8810    6.6010 hc        1 MOL      0.053981
     36 H17        -1.3520   -3.2800    6.3910 hc        1 MOL      0.053981
     37 H18        -0.9710   -4.9750    6.1130 hc        1 MOL      0.053981
     38 N3          2.2320   -5.8980    0.8820 n         1 MOL     -0.574065
     39 C13         2.9250   -4.7280    0.3420 c3        1 MOL      0.414056
     40 C14         3.3390   -4.9880   -1.1710 c         1 MOL      0.373543
     41 O6          3.7750   -6.1030   -1.4950 o         1 MOL     -0.514366
     42 C15         4.1010   -4.2970    1.1460 c3        1 MOL     -0.173057
     43 C16         5.0680   -3.3660    0.4220 c         1 MOL      0.682847
     44 O7          6.2960   -3.7370    0.2420 o         1 MOL     -0.676131
     45 O8          4.5800   -2.3380   -0.1540 o         1 MOL     -0.676131
     46 H19         2.6210   -6.7640    0.5480 hn        1 MOL      0.283866
     47 H20         2.2130   -3.8980    0.3560 h1        1 MOL     -0.148463
     48 H21         4.6410   -5.2270    1.3660 hc        1 MOL      0.011230
     49 H22         3.7910   -3.7680    2.0460 hc        1 MOL      0.011230
     50 N4          3.2150   -3.9730   -2.1010 n         1 MOL     -0.237365
     51 C17         3.7350   -4.1890   -3.4860 c3        1 MOL     -0.233409
     52 C18         4.6550   -3.1070   -3.9740 c         1 MOL      0.777903
     53 O9          4.8900   -3.1600   -5.2120 o         1 MOL     -0.655756
     54 H23         2.5790   -3.2290   -1.8340 hn        1 MOL      0.261730
     55 H24         2.8220   -4.0730   -4.0750 h1        1 MOL      0.098255
     56 H25         4.1860   -5.1750   -3.6030 h1        1 MOL      0.098255
     57 N5          5.2240   -2.2340   -3.1290 n         1 MOL     -0.647334
     58 C19         6.1690   -1.1970   -3.6420 c3        1 MOL      0.125881
     59 C20         7.2560   -0.7770   -2.5470 c         1 MOL      0.359287
     60 O10         8.2400   -0.2380   -2.9170 o         1 MOL     -0.541474
     61 C21         5.3860    0.0400   -4.0990 c3        1 MOL     -0.320904
     62 C22         4.5350    0.6680   -2.9720 c         1 MOL      0.678620
     63 O11         5.1440    1.3650   -2.1090 o         1 MOL     -0.653325
     64 O12         3.2700    0.4650   -2.8350 o         1 MOL     -0.653325
     65 H26         4.8890   -2.2510   -2.1800 hn        1 MOL      0.417033
     66 H27         6.7240   -1.5370   -4.5160 h1        1 MOL      0.087674
     67 H28         4.6450   -0.3120   -4.8220 hc        1 MOL      0.075074
     68 H29         6.0170    0.8520   -4.4450 hc        1 MOL      0.075074
     69 N6          7.0060   -1.0090   -1.2160 n         1 MOL     -0.043634
     70 C23         7.9360   -0.7510   -0.1070 c3        1 MOL     -0.211056
     71 C24         8.1410    0.7120    0.2360 c         1 MOL      0.522384
     72 O13         8.8820    0.9590    1.1680 o         1 MOL     -0.591492
     73 H30         6.2240   -1.6070   -1.0060 hn        1 MOL      0.109784
     74 H31         8.9780   -1.0310   -0.2690 h1        1 MOL      0.091045
     75 H32         7.5980   -1.3920    0.7110 h1        1 MOL      0.091045
     76 N7          7.3970    1.5750   -0.4700 n         1 MOL     -0.038325
     77 C25         7.2380    3.0340   -0.2870 c3        1 MOL      0.042188
     78 C26         6.6840    3.5530    1.0360 c         1 MOL      0.428931
     79 O14         6.8660    4.6740    1.5340 o         1 MOL     -0.537243
     80 C27         8.5750    3.7350   -0.6980 c3        1 MOL      0.026459
     81 C28         9.0280    3.3760   -2.1380 c3        1 MOL     -0.078978
     82 C29        10.2500    4.1590   -2.6870 c         1 MOL      0.645894
     83 N8         10.5670    3.8510   -3.9350 n         1 MOL     -0.823789
     84 O15        10.7510    5.0970   -2.1150 o         1 MOL     -0.579103
     85 H33         6.6380    1.1290   -0.9590 hn        1 MOL      0.061379
     86 H34         6.6000    3.3110   -1.1290 h1        1 MOL      0.061688
     87 H35         9.3300    3.3450   -0.0040 hc        1 MOL     -0.006663
     88 H36         8.4610    4.8090   -0.5710 hc        1 MOL     -0.006663
     89 H37         8.2120    3.5340   -2.8510 hc        1 MOL      0.029390
     90 H38         9.2580    2.3110   -2.2090 hc        1 MOL      0.029390
     91 H39        10.0530    3.1080   -4.3840 hn        1 MOL      0.354499
     92 H40        11.1950    4.4630   -4.4300 hn        1 MOL      0.354499
     93 N9          6.0120    2.6390    1.7410 n         1 MOL     -0.333889
     94 C30         5.4510    2.8310    3.1430 c3        1 MOL      0.056152
     95 C31         3.9410    2.7320    3.3120 c         1 MOL      0.453452
     96 O16         3.4190    2.9530    4.4540 o         1 MOL     -0.580951
     97 C32         6.0930    1.7740    4.0470 c3        1 MOL      0.409554
     98 C33         5.8440    0.3100    3.6110 c3        1 MOL     -0.282447
     99 C34         7.5890    2.0170    4.2930 c3        1 MOL     -0.282447
    100 H41         5.8320    1.7370    1.3050 hn        1 MOL      0.234799
    101 H42         5.7220    3.7820    3.6000 h1        1 MOL      0.058033
    102 H43         5.6120    1.9430    5.0150 hc        1 MOL     -0.087876
    103 H44         6.0710   -0.3370    4.4540 hc        1 MOL      0.049306
    104 H45         4.8180   -0.0110    3.3900 hc        1 MOL      0.049306
    105 H46         6.5230    0.1010    2.7920 hc        1 MOL      0.049306
    106 H47         8.1070    2.0960    3.3390 hc        1 MOL      0.049306
    107 H48         7.7060    2.8660    4.9740 hc        1 MOL      0.049306
    108 H49         7.9060    1.1320    4.8560 hc        1 MOL      0.049306
    109 N10         3.2480    2.3630    2.2560 n         1 MOL     -0.478070
    110 C35         1.7930    1.9600    2.2650 c3        1 MOL      0.469885
    111 C36         1.0800    2.2370    0.9970 c         1 MOL      0.296952
    112 O17         1.7090    2.3740   -0.0630 o         1 MOL     -0.460736
    113 C37         1.7930    0.4570    2.7190 c3        1 MOL     -0.248586
    114 C38         0.5720   -0.3350    2.2980 c         1 MOL      0.385110
    115 N11         0.6580   -1.2340    1.3780 n         1 MOL     -0.373111
    116 O18        -0.5170   -0.0490    2.6970 o         1 MOL     -0.520772
    117 H50         3.7230    2.1850    1.3820 hn        1 MOL      0.235560
    118 H51         1.2980    2.5660    3.0280 h1        1 MOL      0.000958
    119 H52         1.9180    0.5490    3.8020 hc        1 MOL      0.084323
    120 H53         2.8150    0.1260    2.4980 hc        1 MOL      0.084323
    121 H54         1.5160   -1.4370    0.8810 hn        1 MOL      0.284871
    122 H55        -0.1970   -1.6670    1.0610 hn        1 MOL      0.284871
    123 N12        -0.2820    2.1580    1.0540 n         1 MOL     -0.472502
    124 C39        -1.2080    2.4480   -0.0820 c3        1 MOL      0.306772
    125 C40        -2.5090    3.0040    0.4610 c         1 MOL      0.603876
    126 O19        -2.8140    2.8850    1.6270 o         1 MOL     -0.515233
    127 C41        -1.3860    1.1690   -0.9450 c3        1 MOL     -0.069321
    128 C42        -2.5230    1.1840   -1.9460 ca        1 MOL      0.082940
    129 C43        -2.3400    1.9180   -3.1120 ca        1 MOL     -0.201847
    130 C44        -3.7290    0.5890   -1.6420 ca        1 MOL     -0.201847
    131 C45        -3.4120    2.1110   -3.9910 ca        1 MOL     -0.253690
    132 C46        -4.8440    0.7680   -2.4890 ca        1 MOL     -0.253690
    133 C47        -4.6840    1.5770   -3.6360 ca        1 MOL      0.296680
    134 O20        -5.7810    1.8800   -4.4290 oh        1 MOL     -0.439950
    135 H56        -0.6740    1.9720    1.9720 hn        1 MOL      0.240078
    136 H57        -0.7130    3.1890   -0.7180 h1        1 MOL      0.035994
    137 H58        -1.3660    0.2290   -0.3940 hc        1 MOL      0.051083
    138 H59        -0.4750    1.0480   -1.5340 hc        1 MOL      0.051083
    139 H60        -1.3780    2.3720   -3.3150 ha        1 MOL      0.136505
    140 H61        -3.7920    0.0590   -0.7050 ha        1 MOL      0.136505
    141 H62        -3.2720    2.6920   -4.8890 ha        1 MOL      0.150203
    142 H63        -5.8150    0.4280   -2.1730 ha        1 MOL      0.150203
    143 H64        -5.5610    2.4080   -5.1960 ho        1 MOL      0.312466
    144 N13        -3.2320    3.8390   -0.3210 n         1 MOL     -0.904742
    145 C48        -4.4510    4.5690    0.0540 c3        1 MOL      0.428487
    146 C49        -5.4190    4.5110   -1.1970 c         1 MOL      0.787475
    147 O21        -5.0430    5.0900   -2.1900 o         1 MOL     -0.620866
    148 C50        -4.0700    6.0160    0.4610 c3        1 MOL      0.033158
    149 C51        -5.2940    6.8090    1.0280 c3        1 MOL     -0.249011
    150 C52        -4.8460    8.1430    1.5810 c         1 MOL      0.699812
    151 O22        -4.4260    8.3120    2.7640 o         1 MOL     -0.666203
    152 O23        -4.9660    9.1560    0.8570 o         1 MOL     -0.666203
    153 H65        -2.9380    3.9890   -1.2760 hn        1 MOL      0.326881
    154 H66        -4.8850    3.9920    0.8700 h1        1 MOL     -0.052444
    155 H67        -3.7020    6.6110   -0.3730 hc        1 MOL      0.019846
    156 H68        -3.4100    6.0000    1.3280 hc        1 MOL      0.019846
    157 H69        -5.7110    6.1890    1.8240 hc        1 MOL      0.043816
    158 H70        -5.9750    6.9910    0.1990 hc        1 MOL      0.043816
    159 N14        -6.6770    4.0620   -1.1790 n         1 MOL     -0.703912
    160 C53        -7.1280    2.9390   -0.3410 c3        1 MOL     -0.010547
    161 C54        -7.2650    3.3460    1.1450 c         1 MOL      0.510437
    162 O24        -7.8300    4.4150    1.4020 o         1 MOL     -0.561564
    163 C55        -8.4430    2.4040   -1.0350 c3        1 MOL      0.461409
    164 C56        -9.0680    1.2770   -0.1720 c3        1 MOL     -0.322101
    165 C57        -8.5150   -0.0780   -0.4310 c         1 MOL      0.800267
    166 O25        -8.6460   -0.9460    0.4420 o         1 MOL     -0.769887
    167 O26        -7.9520   -0.3760   -1.5210 o         1 MOL     -0.769887
    168 H71        -7.2080    4.3020   -2.0080 hn        1 MOL      0.301008
    169 H72        -6.4400    2.0870   -0.2900 h1        1 MOL      0.120876
    170 H73        -8.2240    2.0610   -2.0390 hc        1 MOL     -0.077809
    171 H74        -9.1680    3.2050   -1.1130 hc        1 MOL     -0.077809
    172 H75       -10.1260    1.3550   -0.3980 hc        1 MOL      0.024402
    173 H76        -9.1620    1.4410    0.8970 hc        1 MOL      0.024402
    174 N15        -6.7750    2.5440    2.0990 n         1 MOL     -0.315539
    175 C58        -6.7530    2.8630    3.5820 c3        1 MOL     -0.002546
    176 H77        -5.7220    2.8680    3.9360 h1        1 MOL      0.052068
    177 H78        -7.1980    3.8440    3.7500 h1        1 MOL      0.052068
    178 H79        -7.3190    2.1080    4.1250 h1        1 MOL      0.052068
    179 H80        -6.3570    1.6480    1.8820 hn        1 MOL      0.259399
    180 Ca1        -7.8960   -3.0500   -1.1250 Ca        1 MOL      1.515042
    181 O27        -9.7220   -2.5570   -3.0100 oh        1 MOL     -0.819676
    182 H81       -10.1310   -1.8000   -3.4360 ho        1 MOL      0.384460
    183 H82        -9.8410   -3.2670   -3.6340 ho        1 MOL      0.384460
    184 O28        -6.7820   -2.5830   -3.6810 oh        1 MOL     -0.819676
    185 H83        -6.9640   -1.7010   -4.0160 ho        1 MOL      0.384460
    186 H84        -5.8760   -2.7510   -3.9280 ho        1 MOL      0.384460
    187 O29        -8.0730   -5.3710   -2.5580 oh        1 MOL     -0.819676
    188 H85        -8.8430   -5.9480   -2.5710 ho        1 MOL      0.384460
    189 H86        -7.3320   -5.9640   -2.6260 ho        1 MOL      0.384460
@<TRIPOS>BOND
     1    1    2 1   
     2    1    4 1   
     3    1    5 1   
     4    1    6 1   
     5    2    3 2   
     6    2    7 1   
     7    7    8 1   
     8    7   15 1   
     9    8    9 1   
    10    8   11 1   
    11    8   16 1   
    12    9   10 2   
    13    9   19 1   
    14   11   12 1   
    15   11   17 1   
    16   11   18 1   
    17   12   13 1   
    18   12   14 1   
    19   19   20 1   
    20   19   27 1   
    21   20   21 1   
    22   20   23 1   
    23   20   28 1   
    24   21   22 2   
    25   21   38 1   
    26   23   24 1   
    27   23   25 1   
    28   23   29 1   
    29   24   26 1   
    30   24   30 1   
    31   24   31 1   
    32   25   32 1   
    33   25   33 1   
    34   25   34 1   
    35   26   35 1   
    36   26   36 1   
    37   26   37 1   
    38   38   39 1   
    39   38   46 1   
    40   39   40 1   
    41   39   42 1   
    42   39   47 1   
    43   40   41 2   
    44   40   50 1   
    45   42   43 1   
    46   42   48 1   
    47   42   49 1   
    48   43   44 1   
    49   43   45 1   
    50   50   51 1   
    51   50   54 1   
    52   51   52 1   
    53   51   55 1   
    54   51   56 1   
    55   52   53 2   
    56   52   57 1   
    57   57   58 1   
    58   57   65 1   
    59   58   59 1   
    60   58   61 1   
    61   58   66 1   
    62   59   60 2   
    63   59   69 1   
    64   61   62 1   
    65   61   67 1   
    66   61   68 1   
    67   62   63 1   
    68   62   64 1   
    69   69   70 1   
    70   69   73 1   
    71   70   71 1   
    72   70   74 1   
    73   70   75 1   
    74   71   72 2   
    75   71   76 1   
    76   76   77 1   
    77   76   85 1   
    78   77   78 1   
    79   77   80 1   
    80   77   86 1   
    81   78   79 2   
    82   78   93 1   
    83   80   81 1   
    84   80   87 1   
    85   80   88 1   
    86   81   82 1   
    87   81   89 1   
    88   81   90 1   
    89   82   83 1   
    90   82   84 2   
    91   83   91 1   
    92   83   92 1   
    93   93   94 1   
    94   93  100 1   
    95   94   95 1   
    96   94   97 1   
    97   94  101 1   
    98   95   96 2   
    99   95  109 1   
   100   97   98 1   
   101   97   99 1   
   102   97  102 1   
   103   98  103 1   
   104   98  104 1   
   105   98  105 1   
   106   99  106 1   
   107   99  107 1   
   108   99  108 1   
   109  109  110 1   
   110  109  117 1   
   111  110  111 1   
   112  110  113 1   
   113  110  118 1   
   114  111  112 2   
   115  111  123 1   
   116  113  114 1   
   117  113  119 1   
   118  113  120 1   
   119  114  115 1   
   120  114  116 2   
   121  115  121 1   
   122  115  122 1   
   123  123  124 1   
   124  123  135 1   
   125  124  125 1   
   126  124  127 1   
   127  124  136 1   
   128  125  126 2   
   129  125  144 1   
   130  127  128 1   
   131  127  137 1   
   132  127  138 1   
   133  128  129 ar  
   134  128  130 ar  
   135  129  131 ar  
   136  129  139 1   
   137  130  132 ar  
   138  130  140 1   
   139  131  133 ar  
   140  131  141 1   
   141  132  133 ar  
   142  132  142 1   
   143  133  134 1   
   144  134  143 1   
   145  144  145 1   
   146  144  153 1   
   147  145  146 1   
   148  145  148 1   
   149  145  154 1   
   150  146  147 2   
   151  146  159 1   
   152  148  149 1   
   153  148  155 1   
   154  148  156 1   
   155  149  150 1   
   156  149  157 1   
   157  149  158 1   
   158  150  151 1   
   159  150  152 1   
   160  159  160 1   
   161  159  168 1   
   162  160  161 1   
   163  160  163 1   
   164  160  169 1   
   165  161  162 2   
   166  161  174 1   
   167  163  164 1   
   168  163  170 1   
   169  163  171 1   
   170  164  165 1   
   171  164  172 1   
   172  164  173 1   
   173  165  166 1   
   174  165  167 1   
   175  174  175 1   
   176  174  179 1   
   177  175  176 1   
   178  175  177 1   
   179  175  178 1   
   180  181  182 1   
   181  181  183 1   
   182  184  185 1   
   183  184  186 1   
   184  187  188 1   
   185  187  189 1   
@<TRIPOS>SUBSTRUCTURE
     1 MOL         1 TEMP              0 ****  ****    0 ROOT
