@<TRIPOS>MOLECULE
MOL
  185   180     1     0     0
SMALL
resp


@<TRIPOS>ATOM
      1 C1          6.4510    1.5420    4.3220 c3        1 MOL     -0.459328
      2 C2          7.0070    1.0940    2.9900 c         1 MOL      0.660165
      3 O1          6.2600    0.6630    2.1450 o         1 MOL     -0.500097
      4 H1          5.7170    0.8150    4.6710 hc        1 MOL      0.128830
      5 H2          7.2610    1.6180    5.0480 hc        1 MOL      0.128830
      6 H3          5.9720    2.5140    4.2080 hc        1 MOL      0.128830
      7 N1          8.2880    1.2200    2.7380 n         1 MOL     -0.560978
      8 C3          8.9620    1.3050    1.4580 c3        1 MOL      0.116100
      9 C4          8.6240    0.1750    0.4310 c         1 MOL      0.443906
     10 O2          8.7520    0.3580   -0.7900 o         1 MOL     -0.555077
     11 C5          8.9450    2.7980    0.9160 c3        1 MOL     -0.348327
     12 C6          8.9990    3.9320    1.8750 c         1 MOL      0.817389
     13 O3          8.0610    4.7360    1.8660 o         1 MOL     -0.711086
     14 O4          9.9980    4.1800    2.6150 o         1 MOL     -0.711086
     15 H4          8.8250    1.5480    3.5240 hn        1 MOL      0.313753
     16 H5          9.9910    1.0960    1.7540 h1        1 MOL      0.032561
     17 H6          8.0170    2.8310    0.3390 hc        1 MOL      0.076069
     18 H7          9.8020    2.9610    0.2590 hc        1 MOL      0.076069
     19 N2          8.0900   -0.9140    0.8800 n         1 MOL     -0.303434
     20 C7          7.4990   -2.0030    0.1350 c3        1 MOL      0.281113
     21 C8          6.0530   -2.2020    0.5240 c         1 MOL      0.585421
     22 O5          5.7690   -2.3740    1.7030 o         1 MOL     -0.520167
     23 C9          8.3410   -3.2770    0.2910 c3        1 MOL     -0.524327
     24 C10         9.8130   -3.2630   -0.1430 c3        1 MOL      0.277175
     25 C11         9.9690   -2.9340   -1.6140 c3        1 MOL     -0.107235
     26 C12        11.4470   -3.1010   -2.0580 c3        1 MOL     -0.036316
     27 N3         12.4130   -2.1120   -1.5280 n4        1 MOL     -0.331967
     28 H8          7.9840   -0.9460    1.8860 hn        1 MOL      0.201040
     29 H9          7.6070   -1.7940   -0.9250 h1        1 MOL      0.011765
     30 H10         7.8660   -3.9850   -0.3930 hc        1 MOL      0.141303
     31 H11         8.3140   -3.5950    1.3400 hc        1 MOL      0.141303
     32 H12        10.3330   -4.1890    0.0800 hc        1 MOL     -0.043563
     33 H13        10.3500   -2.5230    0.4450 hc        1 MOL     -0.043563
     34 H14         9.6300   -1.9240   -1.8620 hc        1 MOL      0.072404
     35 H15         9.4040   -3.6730   -2.1880 hc        1 MOL      0.072404
     36 H16        11.4350   -2.9070   -3.1230 hx        1 MOL      0.099322
     37 H17        11.7570   -4.1490   -1.9770 hx        1 MOL      0.099322
     38 H18        13.2130   -2.1360   -2.1300 hn        1 MOL      0.320761
     39 H19        12.0100   -1.1840   -1.4680 hn        1 MOL      0.320761
     40 H20        12.6360   -2.2780   -0.5530 hn        1 MOL      0.320761
     41 N4          5.1760   -2.3820   -0.4800 n         1 MOL     -0.620297
     42 C13         3.7510   -2.4060   -0.1660 c3        1 MOL      0.036838
     43 C14         3.0970   -3.1910   -1.2600 c         1 MOL      0.572889
     44 O6          3.2300   -2.9690   -2.4920 o         1 MOL     -0.528803
     45 C15         3.2220   -0.9890    0.1010 c3        1 MOL      0.102254
     46 C16         1.6900   -1.1260    0.5270 c         1 MOL      0.509149
     47 O7          0.8060   -1.2510   -0.3330 o         1 MOL     -0.680658
     48 O8          1.2880   -1.1540    1.6780 o         1 MOL     -0.680658
     49 H21         5.4360   -2.0000   -1.3740 hn        1 MOL      0.310499
     50 H22         3.6210   -2.8330    0.8310 h1        1 MOL      0.071772
     51 H23         3.3110   -0.2950   -0.7300 hc        1 MOL      0.028541
     52 H24         3.7700   -0.5170    0.9160 hc        1 MOL      0.028541
     53 N5          2.2540   -4.1560   -0.8850 n         1 MOL     -0.422550
     54 C17         1.5790   -5.1090   -1.8490 c3        1 MOL     -0.185715
     55 C18         0.5190   -4.4130   -2.7830 c         1 MOL      0.633436
     56 O9          0.1280   -4.9650   -3.7470 o         1 MOL     -0.573533
     57 H25         2.0500   -4.2450    0.1000 hn        1 MOL      0.299362
     58 H26         1.0570   -5.8380   -1.2300 h1        1 MOL      0.118837
     59 H27         2.3430   -5.5790   -2.4690 h1        1 MOL      0.118837
     60 N6          0.2330   -3.1160   -2.6910 n         1 MOL     -0.314810
     61 C19        -0.4510   -2.2220   -3.6770 c3        1 MOL     -0.041307
     62 C20         0.2030   -0.8230   -3.8740 c         1 MOL      0.390889
     63 O10        -0.2570    0.0720   -4.5290 o         1 MOL     -0.492304
     64 C21        -1.9560   -2.2080   -3.4590 c3        1 MOL     -0.244744
     65 C22        -2.3940   -1.5040   -2.2110 c         1 MOL      0.599114
     66 N7         -3.1720   -0.4520   -2.4020 n         1 MOL     -0.569627
     67 O11        -2.1480   -1.8950   -1.0860 o         1 MOL     -0.637932
     68 H28         0.5710   -2.7160   -1.8250 hn        1 MOL      0.273771
     69 H29        -0.4480   -2.7120   -4.6510 h1        1 MOL      0.147295
     70 H30        -2.3550   -3.2220   -3.4160 hc        1 MOL      0.110626
     71 H31        -2.4510   -1.8950   -4.3880 hc        1 MOL      0.110626
     72 H32        -3.4640   -0.3260   -3.3570 hn        1 MOL      0.271762
     73 H33        -3.6520    0.0400   -1.6580 hn        1 MOL      0.271762
     74 N8          1.3370   -0.5910   -3.1410 n         1 MOL     -0.016110
     75 C23         2.1460    0.6370   -3.2870 c3        1 MOL     -0.378464
     76 C24         1.6780    1.8690   -2.5820 c         1 MOL      0.624653
     77 O12         1.7790    2.9670   -3.0920 o         1 MOL     -0.539506
     78 H34         1.6430   -1.3000   -2.4820 hn        1 MOL     -0.017308
     79 H35         2.1380    0.9440   -4.3270 h1        1 MOL      0.154095
     80 H36         3.2010    0.4950   -3.0400 h1        1 MOL      0.154095
     81 N9          1.0130    1.6540   -1.4100 n         1 MOL     -0.402056
     82 C25         0.2840    2.6400   -0.6640 c3        1 MOL      0.037463
     83 C26        -0.9620    2.0060   -0.0760 c         1 MOL      0.362017
     84 O13        -1.1750    0.8620    0.4250 o         1 MOL     -0.435262
     85 C27         1.1690    3.1360    0.5780 c3        1 MOL     -0.077569
     86 C28         2.4920    3.7080    0.3380 ca        1 MOL      0.053000
     87 C29         2.6230    4.9750   -0.1960 ca        1 MOL     -0.197624
     88 C30         3.6160    2.9790    0.7350 ca        1 MOL     -0.197624
     89 C31         3.8530    5.5950   -0.4340 ca        1 MOL     -0.195458
     90 C32         4.8900    3.5650    0.5430 ca        1 MOL     -0.195458
     91 C33         5.0200    4.8210   -0.1040 ca        1 MOL      0.331483
     92 O14         6.2290    5.4860   -0.1820 oh        1 MOL     -0.575286
     93 H37         0.8340    0.6870   -1.1680 hn        1 MOL      0.279542
     94 H38         0.0300    3.4820   -1.3080 h1        1 MOL      0.081243
     95 H39         1.2020    2.3810    1.3650 hc        1 MOL      0.039251
     96 H40         0.5370    3.8500    1.0880 hc        1 MOL      0.039251
     97 H41         1.7730    5.5340   -0.5650 ha        1 MOL      0.108020
     98 H42         3.4680    2.0050    1.1900 ha        1 MOL      0.108020
     99 H43         3.9020    6.6190   -0.7650 ha        1 MOL      0.152002
    100 H44         5.6980    3.0570    1.0340 ha        1 MOL      0.152002
    101 H45         6.9500    5.0310    0.2620 ho        1 MOL      0.440966
    102 N10        -1.9400    2.9070   -0.2010 n         1 MOL     -0.369899
    103 C34        -3.2440    2.7460    0.3250 c3        1 MOL      0.090766
    104 C35        -4.3080    2.3840   -0.7370 c         1 MOL      0.180779
    105 O15        -4.8940    1.2360   -0.6580 o         1 MOL     -0.472696
    106 C36        -3.6500    3.9080    1.3060 c3        1 MOL      0.027142
    107 C37        -2.5200    4.5580    2.2040 c3        1 MOL     -0.024120
    108 C38        -4.9290    3.4610    2.0740 c3        1 MOL     -0.334404
    109 C39        -2.1430    3.5490    3.2470 c3        1 MOL     -0.197097
    110 H46        -1.7680    3.7550   -0.7220 hn        1 MOL      0.258602
    111 H47        -3.2030    1.9130    1.0270 h1        1 MOL      0.311886
    112 H48        -3.9310    4.6690    0.5710 hc        1 MOL     -0.064331
    113 H49        -2.9240    5.4560    2.6710 hc        1 MOL      0.046268
    114 H50        -1.6660    4.8140    1.5800 hc        1 MOL      0.046268
    115 H51        -5.7760    3.6080    1.4130 hc        1 MOL      0.088918
    116 H52        -4.9070    2.4010    2.3230 hc        1 MOL      0.088918
    117 H53        -5.0480    4.0230    2.9990 hc        1 MOL      0.088918
    118 H54        -1.8860    2.6030    2.7650 hc        1 MOL      0.055928
    119 H55        -1.3780    3.9890    3.8850 hc        1 MOL      0.055928
    120 H56        -2.9850    3.3680    3.9200 hc        1 MOL      0.055928
    121 N11        -4.6440    3.2340   -1.7720 n         1 MOL     -0.167548
    122 C40        -5.5300    2.8570   -2.8420 c3        1 MOL     -0.226036
    123 C41        -6.9720    2.7430   -2.4110 c         1 MOL      0.277699
    124 O16        -7.7600    2.0930   -3.1130 o         1 MOL     -0.465113
    125 C42        -5.3400    3.7440   -4.0770 c3        1 MOL      0.209862
    126 O17        -4.0520    3.3370   -4.5390 oh        1 MOL     -0.573850
    127 H57        -4.1770    4.1330   -1.7820 hn        1 MOL      0.265977
    128 H58        -5.3370    1.7980   -3.0280 h1        1 MOL      0.222521
    129 H59        -5.3570    4.8180   -3.8870 h1        1 MOL      0.065411
    130 H60        -6.0980    3.4740   -4.8180 h1        1 MOL      0.065411
    131 H61        -3.3860    3.3580   -3.8430 ho        1 MOL      0.361381
    132 N12        -7.3360    3.2960   -1.2910 n         1 MOL     -0.122052
    133 C43        -8.5130    3.0630   -0.4250 c3        1 MOL      0.149613
    134 C44        -8.7860    1.5090   -0.0950 c         1 MOL      0.378793
    135 O18        -9.9230    1.1570    0.3700 o         1 MOL     -0.525706
    136 C45        -9.7520    3.7450   -1.0440 c3        1 MOL     -0.421588
    137 H62        -6.8710    4.1500   -1.0480 hn        1 MOL      0.193465
    138 H63        -8.2750    3.5100    0.5370 h1        1 MOL      0.056921
    139 H64        -9.4900    4.7490   -1.3470 hc        1 MOL      0.129417
    140 H65       -10.0350    3.1650   -1.9280 hc        1 MOL      0.129417
    141 H66       -10.5280    3.7470   -0.2760 hc        1 MOL      0.129417
    142 N13        -7.9250    0.5310   -0.4030 n         1 MOL     -0.291732
    143 C46        -8.0920   -0.8970   -0.3420 c3        1 MOL      0.428746
    144 C47        -7.5290   -1.4340    0.9360 c         1 MOL      0.301862
    145 O19        -6.7260   -0.8030    1.6540 o         1 MOL     -0.451517
    146 C48        -7.1460   -1.3170   -1.5310 c3        1 MOL     -0.325875
    147 H67        -7.0480    0.8300   -0.8100 hn        1 MOL      0.100611
    148 H68        -9.1110   -1.2060   -0.5930 h1        1 MOL      0.007644
    149 H69        -7.2480   -2.3960   -1.6270 hc        1 MOL      0.103856
    150 H70        -7.5520   -0.9000   -2.4510 hc        1 MOL      0.103856
    151 H71        -6.1220   -0.9590   -1.3920 hc        1 MOL      0.103856
    152 N14        -7.8250   -2.6730    1.3060 n         1 MOL     -0.714327
    153 C49        -7.1850   -3.5020    2.3570 c3        1 MOL     -0.080209
    154 C50        -7.3130   -2.9020    3.7620 c         1 MOL      0.533693
    155 O20        -6.6710   -3.3950    4.6510 o         1 MOL     -0.543618
    156 C51        -5.7670   -3.9180    2.0660 c3        1 MOL      0.252837
    157 C52        -5.3790   -4.2620    0.6190 c3        1 MOL     -0.166814
    158 C53        -3.8310   -4.2190    0.5500 c         1 MOL      0.732106
    159 O21        -3.2030   -5.1130   -0.0480 o         1 MOL     -0.699436
    160 O22        -3.1950   -3.4370    1.3180 o         1 MOL     -0.699436
    161 H72        -8.3450   -3.2660    0.6810 hn        1 MOL      0.404942
    162 H73        -7.7640   -4.4200    2.4120 h1        1 MOL      0.090612
    163 H74        -5.4160   -4.7380    2.6930 hc        1 MOL     -0.040753
    164 H75        -5.1740   -3.0700    2.4080 hc        1 MOL     -0.040753
    165 H76        -5.5690   -3.4090   -0.0340 hc        1 MOL      0.023145
    166 H77        -5.9830   -5.0340    0.1340 hc        1 MOL      0.023145
    167 N15        -8.0030   -1.8110    3.9350 n         1 MOL     -0.295013
    168 C54        -8.0630   -0.9880    5.1390 c3        1 MOL     -0.253274
    169 H78        -8.6710   -1.4900    5.8910 h1        1 MOL      0.117010
    170 H79        -7.0560   -0.8380    5.5280 h1        1 MOL      0.117010
    171 H80        -8.5080   -0.0220    4.8980 h1        1 MOL      0.117010
    172 H81        -8.3020   -1.4170    3.0530 hn        1 MOL      0.303374
    173 Ca1        -1.2920   -1.6020    1.3500 Ca        1 MOL      1.804701
    174 O23        -0.4770   -4.3820    0.7410 oh        1 MOL     -0.914718
    175 H82        -0.2070   -5.1240    1.2830 ho        1 MOL      0.438807
    176 H83        -1.3300   -4.6360    0.3980 ho        1 MOL      0.438807
    177 O24        -3.7600   -0.4390    1.5110 oh        1 MOL     -0.914718
    178 H84        -4.5020    0.1690    1.4000 ho        1 MOL      0.438807
    179 H85        -4.1710   -1.2950    1.6300 ho        1 MOL      0.438807
    180 O25        -0.9560   -3.0060    3.7840 oh        1 MOL     -0.914718
    181 H86        -0.2670   -2.8590    4.4230 ho        1 MOL      0.438807
    182 H87        -1.5620   -3.6160    4.2130 ho        1 MOL      0.438807
    183 O26        -1.4430    0.2070    3.3930 oh        1 MOL     -0.914718
    184 H88        -1.9750    0.7140    4.0010 ho        1 MOL      0.438807
    185 H89        -0.6590   -0.0200    3.8850 ho        1 MOL      0.438807
@<TRIPOS>BOND
     1    1    2 1   
     2    1    4 1   
     3    1    5 1   
     4    1    6 1   
     5    2    3 2   
     6    2    7 1   
     7    7    8 1   
     8    7   15 1   
     9    8    9 1   
    10    8   11 1   
    11    8   16 1   
    12    9   10 2   
    13    9   19 1   
    14   11   12 1   
    15   11   17 1   
    16   11   18 1   
    17   12   13 1   
    18   12   14 1   
    19   19   20 1   
    20   19   28 1   
    21   20   21 1   
    22   20   23 1   
    23   20   29 1   
    24   21   22 2   
    25   21   41 1   
    26   23   24 1   
    27   23   30 1   
    28   23   31 1   
    29   24   25 1   
    30   24   32 1   
    31   24   33 1   
    32   25   26 1   
    33   25   34 1   
    34   25   35 1   
    35   26   27 1   
    36   26   36 1   
    37   26   37 1   
    38   27   38 1   
    39   27   39 1   
    40   27   40 1   
    41   41   42 1   
    42   41   49 1   
    43   42   43 1   
    44   42   45 1   
    45   42   50 1   
    46   43   44 2   
    47   43   53 1   
    48   45   46 1   
    49   45   51 1   
    50   45   52 1   
    51   46   47 1   
    52   46   48 1   
    53   53   54 1   
    54   53   57 1   
    55   54   55 1   
    56   54   58 1   
    57   54   59 1   
    58   55   56 2   
    59   55   60 1   
    60   60   61 1   
    61   60   68 1   
    62   61   62 1   
    63   61   64 1   
    64   61   69 1   
    65   62   63 2   
    66   62   74 1   
    67   64   65 1   
    68   64   70 1   
    69   64   71 1   
    70   65   66 1   
    71   65   67 2   
    72   66   72 1   
    73   66   73 1   
    74   74   75 1   
    75   74   78 1   
    76   75   76 1   
    77   75   79 1   
    78   75   80 1   
    79   76   77 2   
    80   76   81 1   
    81   81   82 1   
    82   81   93 1   
    83   82   83 1   
    84   82   85 1   
    85   82   94 1   
    86   83   84 2   
    87   83  102 1   
    88   85   86 1   
    89   85   95 1   
    90   85   96 1   
    91   86   87 ar  
    92   86   88 ar  
    93   87   89 ar  
    94   87   97 1   
    95   88   90 ar  
    96   88   98 1   
    97   89   91 ar  
    98   89   99 1   
    99   90   91 ar  
   100   90  100 1   
   101   91   92 1   
   102   92  101 1   
   103  102  103 1   
   104  102  110 1   
   105  103  104 1   
   106  103  106 1   
   107  103  111 1   
   108  104  105 2   
   109  104  121 1   
   110  106  107 1   
   111  106  108 1   
   112  106  112 1   
   113  107  109 1   
   114  107  113 1   
   115  107  114 1   
   116  108  115 1   
   117  108  116 1   
   118  108  117 1   
   119  109  118 1   
   120  109  119 1   
   121  109  120 1   
   122  121  122 1   
   123  121  127 1   
   124  122  123 1   
   125  122  125 1   
   126  122  128 1   
   127  123  124 2   
   128  123  132 1   
   129  125  126 1   
   130  125  129 1   
   131  125  130 1   
   132  126  131 1   
   133  132  133 1   
   134  132  137 1   
   135  133  134 1   
   136  133  136 1   
   137  133  138 1   
   138  134  135 2   
   139  134  142 1   
   140  136  139 1   
   141  136  140 1   
   142  136  141 1   
   143  142  143 1   
   144  142  147 1   
   145  143  144 1   
   146  143  146 1   
   147  143  148 1   
   148  144  145 2   
   149  144  152 1   
   150  146  149 1   
   151  146  150 1   
   152  146  151 1   
   153  152  153 1   
   154  152  161 1   
   155  153  154 1   
   156  153  156 1   
   157  153  162 1   
   158  154  155 2   
   159  154  167 1   
   160  156  157 1   
   161  156  163 1   
   162  156  164 1   
   163  157  158 1   
   164  157  165 1   
   165  157  166 1   
   166  158  159 1   
   167  158  160 1   
   168  167  168 1   
   169  167  172 1   
   170  168  169 1   
   171  168  170 1   
   172  168  171 1   
   173  174  175 1   
   174  174  176 1   
   175  177  178 1   
   176  177  179 1   
   177  180  181 1   
   178  180  182 1   
   179  183  184 1   
   180  183  185 1   
@<TRIPOS>SUBSTRUCTURE
     1 MOL         1 TEMP              0 ****  ****    0 ROOT
