@<TRIPOS>MOLECULE
MOL
  198   191     1     0     0
SMALL
resp


@<TRIPOS>ATOM
      1 C1         -1.1140    5.1900   -1.4200 c3        1 MOL     -0.399894
      2 C2          0.0620    5.1250   -0.3670 c         1 MOL      0.669267
      3 O1          0.6800    4.0350   -0.1940 o         1 MOL     -0.544958
      4 H1         -0.8130    4.6760   -2.3330 hc        1 MOL      0.079442
      5 H2         -2.0000    4.7070   -1.0070 hc        1 MOL      0.079442
      6 H3         -1.3410    6.2320   -1.6480 hc        1 MOL      0.079442
      7 N1          0.4440    6.2410    0.2900 n         1 MOL     -0.435918
      8 C3          1.4180    6.3560    1.3760 c3        1 MOL      0.085463
      9 C4          2.9080    5.8730    1.0650 c         1 MOL      0.423240
     10 O2          3.5770    5.1160    1.7300 o         1 MOL     -0.412850
     11 C5          0.8280    5.6950    2.6090 c3        1 MOL     -0.357386
     12 C6          1.5980    5.9480    3.9190 c         1 MOL      0.706521
     13 O3          2.1670    7.0440    4.0820 o         1 MOL     -0.623636
     14 O4          1.6180    5.0550    4.7620 o         1 MOL     -0.623636
     15 H4          0.0870    7.1210   -0.0410 hn        1 MOL      0.272296
     16 H5          1.5490    7.4040    1.6690 h1        1 MOL      0.045012
     17 H6          0.6010    4.6400    2.4530 hc        1 MOL      0.090542
     18 H7         -0.1410    6.2070    2.6520 hc        1 MOL      0.090542
     19 N2          3.2570    6.2530   -0.1420 n         1 MOL     -0.162544
     20 C7          4.4970    5.9360   -0.8110 c3        1 MOL     -0.279459
     21 C8          5.8290    6.5250   -0.1450 c         1 MOL      0.486576
     22 O5          5.8370    7.5270    0.5560 o         1 MOL     -0.521945
     23 C9          4.4250    6.2840   -2.3710 c3        1 MOL      0.067980
     24 C10         3.9240    7.7600   -2.5180 c3        1 MOL      0.568541
     25 C11         3.6110    5.2730   -3.0920 c3        1 MOL     -0.211476
     26 C12         4.7010    8.5180   -3.5530 c3        1 MOL     -0.598889
     27 H8          2.5850    6.8940   -0.5250 hn        1 MOL      0.108189
     28 H9          4.5140    4.8490   -0.7350 h1        1 MOL      0.177896
     29 H10         5.4200    6.1740   -2.8130 hc        1 MOL      0.080912
     30 H11         3.9780    8.2360   -1.5420 hc        1 MOL     -0.128407
     31 H12         2.8880    7.8490   -2.8310 hc        1 MOL     -0.128407
     32 H13         3.5430    5.5460   -4.1390 hc        1 MOL      0.041419
     33 H14         3.9780    4.2470   -2.9620 hc        1 MOL      0.041419
     34 H15         2.6380    5.2980   -2.6000 hc        1 MOL      0.041419
     35 H16         4.0870    9.1330   -4.2160 hc        1 MOL      0.118412
     36 H17         5.2260    9.2440   -2.9270 hc        1 MOL      0.118412
     37 H18         5.4080    7.9070   -4.1100 hc        1 MOL      0.118412
     38 N3          7.0610    5.9200   -0.2470 n         1 MOL     -0.340281
     39 C13         7.4420    4.7020   -1.0770 c3        1 MOL      0.054782
     40 C14         6.8020    3.4130   -0.4150 c         1 MOL      0.524302
     41 O6          6.4310    2.4690   -1.1390 o         1 MOL     -0.568055
     42 C15         8.9720    4.5490   -1.2470 c3        1 MOL     -0.205549
     43 C16         9.6060    5.9160   -1.5300 c         1 MOL      0.643491
     44 O7          9.6210    6.3300   -2.7010 o         1 MOL     -0.639576
     45 O8          9.9420    6.6740   -0.5700 o         1 MOL     -0.639576
     46 H19         7.7900    6.4850    0.1510 hn        1 MOL      0.253554
     47 H20         6.9680    4.7990   -2.0570 h1        1 MOL      0.036702
     48 H21         9.1280    3.8370   -2.0440 hc        1 MOL      0.053538
     49 H22         9.3060    4.0400   -0.3470 hc        1 MOL      0.053538
     50 N4          6.4780    3.4340    0.9270 n         1 MOL     -0.413330
     51 C17         5.7350    2.2660    1.5060 c3        1 MOL     -0.075780
     52 C18         6.6590    1.0650    1.7930 c         1 MOL      0.556588
     53 O9          7.8750    1.0890    1.5940 o         1 MOL     -0.561922
     54 H23         6.7280    4.2700    1.4230 hn        1 MOL      0.278208
     55 H24         4.9280    1.9080    0.8730 h1        1 MOL      0.110519
     56 H25         5.2000    2.5690    2.4070 h1        1 MOL      0.110519
     57 N5          6.0040    0.0120    2.2590 n         1 MOL     -0.443264
     58 C19         6.6970   -1.2040    2.6790 c3        1 MOL      0.031553
     59 C20         7.3200   -2.0880    1.5220 c         1 MOL      0.393270
     60 O10         8.0820   -3.0400    1.7980 o         1 MOL     -0.567934
     61 C21         5.7590   -2.0540    3.4340 c3        1 MOL     -0.189119
     62 C22         4.5100   -2.4210    2.7030 c         1 MOL      0.687566
     63 O11         4.4950   -3.3780    1.9020 o         1 MOL     -0.686000
     64 O12         3.5730   -1.5740    2.8210 o         1 MOL     -0.686000
     65 H26         4.9970    0.1030    2.2600 hn        1 MOL      0.261612
     66 H27         7.5440   -0.9800    3.3390 h1        1 MOL      0.101298
     67 H28         5.5940   -1.5810    4.4030 hc        1 MOL      0.041234
     68 H29         6.2940   -2.9340    3.7840 hc        1 MOL      0.041234
     69 N6          7.0070   -1.8240    0.2530 n         1 MOL     -0.089802
     70 C23         7.4350   -2.5620   -1.0110 c3        1 MOL     -0.464311
     71 C24         7.0200   -4.0330   -0.9870 c         1 MOL      0.652323
     72 O13         7.3730   -4.6710   -1.9440 o         1 MOL     -0.605332
     73 H30         6.3460   -1.0650    0.1280 hn        1 MOL      0.219837
     74 H31         8.5190   -2.5170   -1.0660 h1        1 MOL      0.181209
     75 H32         6.9010   -1.9880   -1.7600 h1        1 MOL      0.181209
     76 N7          6.2290   -4.5150   -0.0770 n         1 MOL     -0.145541
     77 C25         5.5230   -5.8370   -0.1340 c3        1 MOL      0.224263
     78 C26         4.9500   -6.1060   -1.5270 c         1 MOL      0.321351
     79 O14         5.0960   -7.1860   -2.1160 o         1 MOL     -0.528477
     80 C27         6.3830   -7.0010    0.4630 c3        1 MOL      0.050921
     81 C28         7.1690   -6.6910    1.7410 c3        1 MOL     -0.356785
     82 C29         7.4410   -7.9210    2.5770 c         1 MOL      0.832143
     83 N8          8.2200   -7.7660    3.6710 n         1 MOL     -0.913354
     84 O15         6.9690   -9.0050    2.4200 o         1 MOL     -0.582224
     85 H33         5.9380   -3.8490    0.6210 hn        1 MOL      0.042193
     86 H34         4.6180   -5.7710    0.4800 h1        1 MOL      0.060912
     87 H35         7.1480   -7.4250   -0.1760 hc        1 MOL     -0.004934
     88 H36         5.6420   -7.7860    0.6340 hc        1 MOL     -0.004934
     89 H37         6.6250   -5.9190    2.2620 hc        1 MOL      0.104261
     90 H38         8.1330   -6.3280    1.3690 hc        1 MOL      0.104261
     91 H39         8.5910   -6.8530    3.9160 hn        1 MOL      0.359631
     92 H40         8.4540   -8.4900    4.3380 hn        1 MOL      0.359631
     93 N9          4.2570   -5.1450   -2.1110 n         1 MOL     -0.188802
     94 C30         3.4230   -5.3160   -3.3510 c3        1 MOL     -0.211023
     95 C31         1.9580   -4.9010   -3.1370 c         1 MOL      0.688802
     96 O16         1.1400   -5.1610   -4.0080 o         1 MOL     -0.583669
     97 C32         4.0730   -4.5840   -4.5470 c3        1 MOL      0.234319
     98 C33         4.1780   -3.1040   -4.2870 c3        1 MOL     -0.230864
     99 C34         5.5040   -5.1800   -4.8100 c3        1 MOL     -0.230864
    100 H41         4.2260   -4.2700   -1.6230 hn        1 MOL      0.223187
    101 H42         3.2720   -6.3540   -3.6350 h1        1 MOL      0.127922
    102 H43         3.4390   -4.6850   -5.4180 hc        1 MOL     -0.023777
    103 H44         3.2290   -2.5870   -4.1630 hc        1 MOL      0.053486
    104 H45         4.7590   -2.9350   -3.3830 hc        1 MOL      0.053486
    105 H46         4.6810   -2.7000   -5.1630 hc        1 MOL      0.053486
    106 H47         5.8640   -5.0180   -5.8290 hc        1 MOL      0.053486
    107 H48         6.1790   -4.6560   -4.1340 hc        1 MOL      0.053486
    108 H49         5.5810   -6.2530   -4.6210 hc        1 MOL      0.053486
    109 N10         1.5560   -4.3130   -1.9810 n         1 MOL     -0.574633
    110 C35         0.3830   -3.5570   -1.8050 c3        1 MOL      0.334266
    111 C36        -0.3550   -3.8260   -0.5090 c         1 MOL      0.465969
    112 O17         0.2480   -4.4480    0.4120 o         1 MOL     -0.498855
    113 C37         0.8190   -2.0880   -1.8990 c3        1 MOL     -0.257687
    114 C38        -0.2990   -1.0550   -1.7730 c         1 MOL      0.622178
    115 N11        -0.1570   -0.2180   -0.7920 n         1 MOL     -0.726905
    116 O18        -1.2130   -0.9750   -2.5720 o         1 MOL     -0.587493
    117 H50         2.1630   -4.1320   -1.1960 hn        1 MOL      0.227413
    118 H51        -0.3260   -3.6910   -2.6140 h1        1 MOL      0.021918
    119 H52         1.2830   -1.9180   -2.8720 hc        1 MOL      0.082591
    120 H53         1.6250   -1.7700   -1.2300 hc        1 MOL      0.082591
    121 H54         0.6770   -0.2190   -0.2170 hn        1 MOL      0.364775
    122 H55        -0.8870    0.4610   -0.6490 hn        1 MOL      0.364775
    123 N12        -1.6660   -3.4510   -0.4450 n         1 MOL     -0.525980
    124 C39        -2.5890   -3.4650    0.6820 c3        1 MOL      0.139863
    125 C40        -4.0200   -3.4470    0.0430 c         1 MOL      0.625935
    126 O19        -4.2400   -2.9160   -1.0230 o         1 MOL     -0.529396
    127 C41        -2.3320   -2.1710    1.4050 c3        1 MOL     -0.107638
    128 C42        -3.2410   -1.9040    2.5650 ca        1 MOL      0.158823
    129 C43        -2.8790   -2.3710    3.8260 ca        1 MOL     -0.283135
    130 C44        -4.5020   -1.2710    2.4040 ca        1 MOL     -0.283135
    131 C45        -3.8560   -2.4810    4.7950 ca        1 MOL     -0.141568
    132 C46        -5.4500   -1.2390    3.4680 ca        1 MOL     -0.141568
    133 C47        -5.1080   -1.8460    4.6630 ca        1 MOL      0.264020
    134 O20        -6.0650   -1.8460    5.6230 oh        1 MOL     -0.499912
    135 H56        -2.1760   -3.1540   -1.2650 hn        1 MOL      0.274060
    136 H57        -2.5350   -4.3720    1.2870 h1        1 MOL      0.071654
    137 H58        -2.2430   -1.2770    0.7790 hc        1 MOL      0.060811
    138 H59        -1.3350   -2.3050    1.8160 hc        1 MOL      0.060811
    139 H60        -1.8900   -2.7140    4.0790 ha        1 MOL      0.174240
    140 H61        -4.8160   -0.8290    1.4640 ha        1 MOL      0.174240
    141 H62        -3.5880   -2.9710    5.7230 ha        1 MOL      0.095371
    142 H63        -6.3590   -0.6830    3.3180 ha        1 MOL      0.095371
    143 H64        -5.7300   -2.1060    6.4870 ho        1 MOL      0.366798
    144 N13        -5.0660   -4.0850    0.6980 n         1 MOL     -0.765110
    145 C48        -6.4170   -3.9990    0.1570 c3        1 MOL      0.541555
    146 C49        -7.3080   -3.2330    1.1590 c         1 MOL      0.463244
    147 O21        -7.3940   -3.6570    2.3160 o         1 MOL     -0.540775
    148 C50        -6.8950   -5.4050   -0.2200 c3        1 MOL     -0.305882
    149 C51        -8.3940   -5.3730   -0.5210 c3        1 MOL     -0.168955
    150 C52        -8.8600   -6.8790   -0.6360 c         1 MOL      0.698524
    151 O22        -9.5050   -7.3670    0.2660 o         1 MOL     -0.663945
    152 O23        -8.5310   -7.5670   -1.6500 o         1 MOL     -0.663945
    153 H65        -4.8470   -4.6430    1.5100 hn        1 MOL      0.327861
    154 H66        -6.3200   -3.3610   -0.7230 h1        1 MOL     -0.034938
    155 H67        -6.8330   -6.0640    0.6390 hc        1 MOL      0.096558
    156 H68        -6.2720   -5.7090   -1.0580 hc        1 MOL      0.096558
    157 H69        -8.4470   -4.8130   -1.4640 hc        1 MOL      0.066693
    158 H70        -8.9880   -4.9640    0.2920 hc        1 MOL      0.066693
    159 N14        -8.1040   -2.2590    0.7380 n         1 MOL     -0.301578
    160 C53        -8.2900   -1.6220   -0.5430 c3        1 MOL     -0.326285
    161 C54        -9.3450   -2.2600   -1.4400 c         1 MOL      0.423012
    162 O24       -10.4800   -2.7070   -1.1060 o         1 MOL     -0.522461
    163 C55        -8.6990   -0.1940   -0.3140 c3        1 MOL      0.008109
    164 C56        -7.4970    0.6460    0.0380 c3        1 MOL     -0.464666
    165 C57        -7.6990    2.2040   -0.1390 c         1 MOL      0.822622
    166 O25        -7.8770    2.9320    0.8430 o         1 MOL     -0.684788
    167 O26        -7.5360    2.7310   -1.2700 o         1 MOL     -0.684788
    168 H71        -8.6820   -1.8490    1.4640 hn        1 MOL      0.269899
    169 H72        -7.3410   -1.4810   -1.0490 h1        1 MOL      0.212486
    170 H73        -9.4250   -0.1640    0.4980 hc        1 MOL      0.079810
    171 H74        -9.1600    0.2380   -1.2050 hc        1 MOL      0.079810
    172 H75        -6.6370    0.4610   -0.6030 hc        1 MOL      0.114157
    173 H76        -7.1020    0.3770    1.0100 hc        1 MOL      0.114157
    174 N15        -8.9520   -2.3190   -2.6960 n         1 MOL     -0.081876
    175 C58        -9.6190   -2.4510   -4.0290 c3        1 MOL     -0.571956
    176 H77        -9.0290   -3.1110   -4.6660 h1        1 MOL      0.190890
    177 H78       -10.6170   -2.8690   -3.8970 h1        1 MOL      0.190890
    178 H79        -9.6950   -1.4690   -4.4960 h1        1 MOL      0.190890
    179 H80        -7.9650   -2.1890   -2.8440 hn        1 MOL      0.178175
    180 Ca1        -8.4690    5.2530   -0.6610 Ca        1 MOL      1.773506
    181 O27       -10.5060    6.7070   -1.4370 oh        1 MOL     -0.947063
    182 H81       -11.4340    6.4670   -1.4010 ho        1 MOL      0.415379
    183 H82       -10.5010    7.6540   -1.5440 ho        1 MOL      0.415379
    184 O28        -8.3170    7.7140    0.3620 oh        1 MOL     -0.947063
    185 H83        -7.5110    7.7780    0.8670 ho        1 MOL      0.415379
    186 H84        -8.8400    8.4640    0.6290 ho        1 MOL      0.415379
    187 O29       -10.6460    3.9490   -0.1540 oh        1 MOL     -0.947063
    188 H85       -10.5800    3.3220    0.5660 ho        1 MOL      0.415379
    189 H86       -11.5480    4.2800   -0.1040 ho        1 MOL      0.415379
    190 O30        -9.1560    5.8240    1.9660 oh        1 MOL     -0.947063
    191 H87        -8.6990    5.6120    2.7780 ho        1 MOL      0.415379
    192 H88        -9.8370    6.4500    2.2240 ho        1 MOL      0.415379
    193 O31        -6.3480    5.5530    0.9240 oh        1 MOL     -0.947063
    194 H89        -5.7600    6.2430    1.2160 ho        1 MOL      0.415379
    195 H90        -6.0720    4.7770    1.4160 ho        1 MOL      0.415379
    196 O32        -9.0530    4.6080   -3.1300 oh        1 MOL     -0.947063
    197 H91        -9.1620    3.6610   -3.0250 ho        1 MOL      0.415379
    198 H92        -9.5960    4.8250   -3.8870 ho        1 MOL      0.415379
@<TRIPOS>BOND
     1    1    2 1   
     2    1    4 1   
     3    1    5 1   
     4    1    6 1   
     5    2    3 2   
     6    2    7 1   
     7    7    8 1   
     8    7   15 1   
     9    8    9 1   
    10    8   11 1   
    11    8   16 1   
    12    9   10 2   
    13    9   19 1   
    14   11   12 1   
    15   11   17 1   
    16   11   18 1   
    17   12   13 1   
    18   12   14 1   
    19   19   20 1   
    20   19   27 1   
    21   20   21 1   
    22   20   23 1   
    23   20   28 1   
    24   21   22 2   
    25   21   38 1   
    26   23   24 1   
    27   23   25 1   
    28   23   29 1   
    29   24   26 1   
    30   24   30 1   
    31   24   31 1   
    32   25   32 1   
    33   25   33 1   
    34   25   34 1   
    35   26   35 1   
    36   26   36 1   
    37   26   37 1   
    38   38   39 1   
    39   38   46 1   
    40   39   40 1   
    41   39   42 1   
    42   39   47 1   
    43   40   41 2   
    44   40   50 1   
    45   42   43 1   
    46   42   48 1   
    47   42   49 1   
    48   43   44 1   
    49   43   45 1   
    50   50   51 1   
    51   50   54 1   
    52   51   52 1   
    53   51   55 1   
    54   51   56 1   
    55   52   53 2   
    56   52   57 1   
    57   57   58 1   
    58   57   65 1   
    59   58   59 1   
    60   58   61 1   
    61   58   66 1   
    62   59   60 2   
    63   59   69 1   
    64   61   62 1   
    65   61   67 1   
    66   61   68 1   
    67   62   63 1   
    68   62   64 1   
    69   69   70 1   
    70   69   73 1   
    71   70   71 1   
    72   70   74 1   
    73   70   75 1   
    74   71   72 2   
    75   71   76 1   
    76   76   77 1   
    77   76   85 1   
    78   77   78 1   
    79   77   80 1   
    80   77   86 1   
    81   78   79 2   
    82   78   93 1   
    83   80   81 1   
    84   80   87 1   
    85   80   88 1   
    86   81   82 1   
    87   81   89 1   
    88   81   90 1   
    89   82   83 1   
    90   82   84 2   
    91   83   91 1   
    92   83   92 1   
    93   93   94 1   
    94   93  100 1   
    95   94   95 1   
    96   94   97 1   
    97   94  101 1   
    98   95   96 2   
    99   95  109 1   
   100   97   98 1   
   101   97   99 1   
   102   97  102 1   
   103   98  103 1   
   104   98  104 1   
   105   98  105 1   
   106   99  106 1   
   107   99  107 1   
   108   99  108 1   
   109  109  110 1   
   110  109  117 1   
   111  110  111 1   
   112  110  113 1   
   113  110  118 1   
   114  111  112 2   
   115  111  123 1   
   116  113  114 1   
   117  113  119 1   
   118  113  120 1   
   119  114  115 1   
   120  114  116 2   
   121  115  121 1   
   122  115  122 1   
   123  123  124 1   
   124  123  135 1   
   125  124  125 1   
   126  124  127 1   
   127  124  136 1   
   128  125  126 2   
   129  125  144 1   
   130  127  128 1   
   131  127  137 1   
   132  127  138 1   
   133  128  129 ar  
   134  128  130 ar  
   135  129  131 ar  
   136  129  139 1   
   137  130  132 ar  
   138  130  140 1   
   139  131  133 ar  
   140  131  141 1   
   141  132  133 ar  
   142  132  142 1   
   143  133  134 1   
   144  134  143 1   
   145  144  145 1   
   146  144  153 1   
   147  145  146 1   
   148  145  148 1   
   149  145  154 1   
   150  146  147 2   
   151  146  159 1   
   152  148  149 1   
   153  148  155 1   
   154  148  156 1   
   155  149  150 1   
   156  149  157 1   
   157  149  158 1   
   158  150  151 1   
   159  150  152 1   
   160  159  160 1   
   161  159  168 1   
   162  160  161 1   
   163  160  163 1   
   164  160  169 1   
   165  161  162 2   
   166  161  174 1   
   167  163  164 1   
   168  163  170 1   
   169  163  171 1   
   170  164  165 1   
   171  164  172 1   
   172  164  173 1   
   173  165  166 1   
   174  165  167 1   
   175  174  175 1   
   176  174  179 1   
   177  175  176 1   
   178  175  177 1   
   179  175  178 1   
   180  181  182 1   
   181  181  183 1   
   182  184  185 1   
   183  184  186 1   
   184  187  188 1   
   185  187  189 1   
   186  190  191 1   
   187  190  192 1   
   188  193  194 1   
   189  193  195 1   
   190  196  197 1   
   191  196  198 1   
@<TRIPOS>SUBSTRUCTURE
     1 MOL         1 TEMP              0 ****  ****    0 ROOT
