@<TRIPOS>MOLECULE
MOL
  195   189     1     0     0
SMALL
resp


@<TRIPOS>ATOM
      1 C1          4.2680   -1.5430   -2.5430 c3        1 MOL     -0.462722
      2 C2          3.3520   -2.3840   -1.6580 c         1 MOL      0.732470
      3 O1          2.3390   -1.9270   -1.1140 o         1 MOL     -0.498859
      4 H1          5.0690   -1.1210   -1.9370 hc        1 MOL      0.105427
      5 H2          4.6970   -2.1720   -3.3240 hc        1 MOL      0.105427
      6 H3          3.6950   -0.7370   -2.9990 hc        1 MOL      0.105427
      7 N1          3.7220   -3.6400   -1.3380 n         1 MOL     -0.473281
      8 C3          2.9610   -4.6090   -0.5250 c3        1 MOL     -0.177089
      9 C4          1.4780   -4.7090   -0.9140 c         1 MOL      0.937755
     10 O2          0.6480   -4.5340   -0.0340 o         1 MOL     -0.557079
     11 C5          3.2300   -4.4360    0.9790 c3        1 MOL     -0.635576
     12 C6          4.7580   -4.2360    1.2960 c         1 MOL      0.876628
     13 O3          5.0320   -3.8380    2.4500 o         1 MOL     -0.697931
     14 O4          5.6530   -4.5410    0.4770 o         1 MOL     -0.697931
     15 H4          4.5900   -3.9210   -1.7780 hn        1 MOL      0.192558
     16 H5          3.4450   -5.5210   -0.8830 h1        1 MOL      0.111265
     17 H6          3.0580   -5.2810    1.6520 hc        1 MOL      0.204776
     18 H7          2.6890   -3.5520    1.3090 hc        1 MOL      0.204776
     19 N2          1.1140   -4.9320   -2.2160 n         1 MOL     -0.789399
     20 C7         -0.3080   -4.9850   -2.6020 c3        1 MOL     -0.094505
     21 C8         -1.0460   -6.3030   -2.3450 c         1 MOL      0.562014
     22 O5         -0.5570   -7.3780   -2.7440 o         1 MOL     -0.598745
     23 C9         -0.3980   -4.5050   -4.0910 c3        1 MOL      0.062679
     24 C10         0.4940   -5.2070   -5.1120 c3        1 MOL      0.263314
     25 C11        -0.1260   -3.0170   -4.0090 c3        1 MOL     -0.184995
     26 C12         0.2640   -4.9240   -6.5600 c3        1 MOL     -0.256098
     27 H8          1.8230   -5.0140   -2.9200 hn        1 MOL      0.366127
     28 H9         -0.7660   -4.2210   -1.9690 h1        1 MOL      0.181987
     29 H10        -1.4330   -4.6110   -4.4210 hc        1 MOL      0.034819
     30 H11         0.3390   -6.2610   -4.9140 hc        1 MOL     -0.051705
     31 H12         1.5560   -5.0260   -4.9450 hc        1 MOL     -0.051705
     32 H13         0.9550   -2.8630   -4.0060 hc        1 MOL      0.048621
     33 H14        -0.6930   -2.5390   -4.8080 hc        1 MOL      0.048621
     34 H15        -0.5190   -2.5110   -3.1250 hc        1 MOL      0.048621
     35 H16        -0.5980   -5.5080   -6.9050 hc        1 MOL      0.042173
     36 H17         0.1220   -3.8570   -6.6780 hc        1 MOL      0.042173
     37 H18         1.1610   -5.2840   -7.0770 hc        1 MOL      0.042173
     38 N3         -2.2000   -6.3440   -1.7320 n         1 MOL     -0.359888
     39 C13        -2.9460   -5.3100   -1.0140 c3        1 MOL     -0.124614
     40 C14        -3.8650   -5.9530    0.0970 c         1 MOL      0.520853
     41 O6         -4.3840   -7.1280   -0.1190 o         1 MOL     -0.563140
     42 C15        -3.8700   -4.5350   -2.0140 c3        1 MOL     -0.149845
     43 C16        -4.5140   -3.3060   -1.3890 c         1 MOL      0.782495
     44 O7         -5.4730   -3.4300   -0.6000 o         1 MOL     -0.723815
     45 O8         -4.0140   -2.2130   -1.8030 o         1 MOL     -0.723815
     46 H19        -2.7180   -7.2100   -1.7090 hn        1 MOL      0.264698
     47 H20        -2.3210   -4.6020   -0.4680 h1        1 MOL      0.109836
     48 H21        -4.6460   -5.2170   -2.3670 hc        1 MOL      0.031894
     49 H22        -3.2560   -4.2880   -2.8860 hc        1 MOL      0.031894
     50 N4         -3.9660   -5.3360    1.2480 n         1 MOL     -0.332485
     51 C17        -4.8130   -5.6990    2.4160 c3        1 MOL     -0.133705
     52 C18        -5.5720   -4.5430    2.9830 c         1 MOL      0.659245
     53 O9         -6.1760   -4.7040    4.0070 o         1 MOL     -0.633417
     54 H23        -3.4350   -4.4960    1.4000 hn        1 MOL      0.281669
     55 H24        -4.1920   -6.0470    3.2400 h1        1 MOL      0.092613
     56 H25        -5.4840   -6.5340    2.1780 h1        1 MOL      0.092613
     57 N5         -5.6950   -3.3440    2.4160 n         1 MOL     -0.456432
     58 C19        -6.4080   -2.2310    2.9780 c3        1 MOL      0.183871
     59 C20        -7.4200   -1.6550    2.0030 c         1 MOL      0.384431
     60 O10        -8.4370   -1.1990    2.4590 o         1 MOL     -0.562492
     61 C21        -5.3960   -1.1950    3.3660 c3        1 MOL     -0.290437
     62 C22        -4.3780   -0.7970    2.2820 c         1 MOL      0.791082
     63 O11        -3.1930   -1.2030    2.4230 o         1 MOL     -0.710551
     64 O12        -4.7300    0.0400    1.3960 o         1 MOL     -0.710551
     65 H26        -5.2170   -3.1740    1.5390 hn        1 MOL      0.256531
     66 H27        -6.9610   -2.5490    3.8670 h1        1 MOL      0.077201
     67 H28        -4.8820   -1.5730    4.2440 hc        1 MOL      0.043574
     68 H29        -5.8620   -0.2680    3.7170 hc        1 MOL      0.043574
     69 N6         -7.2360   -1.6780    0.6470 n         1 MOL     -0.259808
     70 C23        -8.0140   -0.9320   -0.3980 c3        1 MOL     -0.128902
     71 C24        -8.0870    0.5850   -0.2670 c         1 MOL      0.510917
     72 O13        -8.9050    1.1370   -1.0220 o         1 MOL     -0.582032
     73 H30        -6.4150   -2.1720    0.3160 hn        1 MOL      0.218574
     74 H31        -9.0420   -1.2940   -0.4830 h1        1 MOL      0.102927
     75 H32        -7.7020   -1.1890   -1.4130 h1        1 MOL      0.102927
     76 N7         -7.2720    1.2390    0.6630 n         1 MOL     -0.102068
     77 C25        -7.2320    2.6520    0.9270 c3        1 MOL     -0.133273
     78 C26        -6.9810    3.5630   -0.3110 c         1 MOL      0.580871
     79 O14        -7.2360    4.7800   -0.3290 o         1 MOL     -0.528998
     80 C27        -8.3810    3.0710    1.9110 c3        1 MOL      0.083291
     81 C28        -8.1380    2.4230    3.2740 c3        1 MOL      0.050004
     82 C29        -9.0740    2.8870    4.3390 c         1 MOL      0.536159
     83 N8         -9.9770    2.0410    4.7260 n         1 MOL     -0.732100
     84 O15        -8.9130    3.9810    4.8800 o         1 MOL     -0.583094
     85 H33        -6.6660    0.6590    1.2240 hn        1 MOL      0.110270
     86 H34        -6.4040    2.9730    1.5570 h1        1 MOL      0.126057
     87 H35        -9.3080    2.6700    1.4900 hc        1 MOL     -0.027822
     88 H36        -8.3500    4.1530    1.9540 hc        1 MOL     -0.027822
     89 H37        -7.1930    2.7740    3.6870 hc        1 MOL      0.008700
     90 H38        -8.1620    1.3420    3.2530 hc        1 MOL      0.008700
     91 H39        -9.9970    1.1060    4.3340 hn        1 MOL      0.340030
     92 H40       -10.6500    2.2740    5.4390 hn        1 MOL      0.340030
     93 N9         -6.2610    3.0200   -1.3310 n         1 MOL     -0.369881
     94 C30        -5.6780    3.7750   -2.4330 c3        1 MOL     -0.265918
     95 C31        -4.1540    3.7950   -2.5950 c         1 MOL      0.701461
     96 O16        -3.5910    4.6830   -3.2550 o         1 MOL     -0.599636
     97 C32        -6.2760    3.2780   -3.7500 c3        1 MOL      0.249238
     98 C33        -5.9500    1.8370   -4.1550 c3        1 MOL     -0.299113
     99 C34        -7.8360    3.2980   -3.8230 c3        1 MOL     -0.299113
    100 H41        -6.0580    2.0430   -1.1720 hn        1 MOL      0.216972
    101 H42        -5.9810    4.8050   -2.2380 h1        1 MOL      0.139675
    102 H43        -6.0530    3.8790   -4.6400 hc        1 MOL     -0.012727
    103 H44        -4.9010    1.5270   -4.1300 hc        1 MOL      0.072046
    104 H45        -6.5030    1.2390   -3.4310 hc        1 MOL      0.072046
    105 H46        -6.3510    1.6620   -5.1510 hc        1 MOL      0.072046
    106 H47        -8.1580    3.1310   -4.8450 hc        1 MOL      0.072046
    107 H48        -8.3220    2.4630   -3.3180 hc        1 MOL      0.072046
    108 H49        -8.2850    4.1850   -3.3820 hc        1 MOL      0.072046
    109 N10        -3.5130    2.7190   -2.1630 n         1 MOL     -0.523809
    110 C35        -2.0640    2.5230   -2.3000 c3        1 MOL      0.026857
    111 C36        -1.2000    3.0610   -1.0750 c         1 MOL      0.690525
    112 O17        -1.7500    3.3620   -0.0330 o         1 MOL     -0.554094
    113 C37        -1.8650    1.0020   -2.5560 c3        1 MOL     -0.039265
    114 C38        -0.5060    0.5270   -2.6890 c         1 MOL      0.476294
    115 N11        -0.0180   -0.2780   -1.7220 n         1 MOL     -0.608734
    116 O18         0.1300    0.9510   -3.6090 o         1 MOL     -0.567264
    117 H50        -4.1020    2.0230   -1.7390 hn        1 MOL      0.332302
    118 H51        -1.6990    2.9480   -3.2280 h1        1 MOL      0.074233
    119 H52        -2.3870    0.6860   -3.4650 hc        1 MOL      0.074794
    120 H53        -2.4190    0.4770   -1.7700 hc        1 MOL      0.074794
    121 H54        -0.6400   -0.4890   -0.9430 hn        1 MOL      0.322246
    122 H55         0.8860   -0.7080   -1.8140 hn        1 MOL      0.322246
    123 N12         0.1130    2.9810   -1.1320 n         1 MOL     -0.711372
    124 C39         0.9430    3.3240   -0.0600 c3        1 MOL      0.369252
    125 C40         2.3460    3.8270   -0.4360 c         1 MOL      0.519519
    126 O19         2.9240    3.2670   -1.3490 o         1 MOL     -0.556061
    127 C41         1.0080    2.1920    0.9830 c3        1 MOL     -0.284991
    128 C42         1.7800    2.4900    2.2960 ca        1 MOL      0.130915
    129 C43         3.1490    2.1440    2.4740 ca        1 MOL     -0.163045
    130 C44         1.1080    3.1960    3.2600 ca        1 MOL     -0.163045
    131 C45         3.7670    2.3930    3.7120 ca        1 MOL     -0.328490
    132 C46         1.8030    3.5860    4.4240 ca        1 MOL     -0.328490
    133 C47         3.0980    3.1840    4.6520 ca        1 MOL      0.414149
    134 O20         3.7130    3.5310    5.8620 oh        1 MOL     -0.538137
    135 H56         0.5020    2.3680   -1.8340 hn        1 MOL      0.323616
    136 H57         0.5330    4.2380    0.3810 h1        1 MOL      0.003723
    137 H58         1.5580    1.3850    0.5010 hc        1 MOL      0.107140
    138 H59        -0.0280    1.9710    1.2510 hc        1 MOL      0.107140
    139 H60         3.7260    1.6890    1.6840 ha        1 MOL      0.151575
    140 H61         0.0910    3.5350    3.1330 ha        1 MOL      0.151575
    141 H62         4.8050    2.1130    3.8050 ha        1 MOL      0.169733
    142 H63         1.2700    4.1930    5.1260 ha        1 MOL      0.169733
    143 H64         4.4720    2.9450    5.8810 ho        1 MOL      0.355288
    144 N13         2.8830    4.8100    0.2670 n         1 MOL     -0.544930
    145 C48         4.2210    5.4300    0.0180 c3        1 MOL      0.363910
    146 C49         5.3360    4.8630    0.9280 c         1 MOL      0.354350
    147 O21         5.4540    5.3220    2.1150 o         1 MOL     -0.559758
    148 C50         4.2430    6.9820    0.0470 c3        1 MOL     -0.017691
    149 C51         3.3180    7.6910   -0.9540 c3        1 MOL     -0.192799
    150 C52         3.4260    9.2880   -0.9500 c         1 MOL      0.717206
    151 O22         4.0180    9.8090   -1.9130 o         1 MOL     -0.694243
    152 O23         2.8200    9.9390   -0.0990 o         1 MOL     -0.694243
    153 H65         2.2730    5.2780    0.9250 hn        1 MOL      0.307672
    154 H66         4.4420    5.0590   -0.9800 h1        1 MOL     -0.002977
    155 H67         5.2890    7.2170   -0.1310 hc        1 MOL      0.022099
    156 H68         4.0310    7.4250    1.0250 hc        1 MOL      0.022099
    157 H69         2.3440    7.2760   -0.6770 hc        1 MOL      0.010638
    158 H70         3.5380    7.3730   -1.9690 hc        1 MOL      0.010638
    159 N14         6.3750    4.1480    0.4630 n         1 MOL     -0.371150
    160 C53         6.3020    3.2660   -0.7180 c3        1 MOL     -0.139890
    161 C54         6.8270    4.0370   -1.9250 c         1 MOL      0.511156
    162 O24         7.7880    4.8210   -1.8060 o         1 MOL     -0.545511
    163 C55         7.0420    1.9750   -0.3930 c3        1 MOL     -0.050625
    164 C56         6.3940    1.0630    0.6960 c3        1 MOL      0.377907
    165 C57         7.3440   -0.1630    0.8190 c         1 MOL      0.577347
    166 O25         8.3530    0.0680    1.5090 o         1 MOL     -0.724357
    167 O26         7.0780   -1.3340    0.4230 o         1 MOL     -0.724357
    168 H71         7.1310    4.0760    1.1260 hn        1 MOL      0.300266
    169 H72         5.2580    3.0070   -0.8790 h1        1 MOL      0.121684
    170 H73         8.0740    2.1780   -0.0900 hc        1 MOL     -0.001536
    171 H74         7.1140    1.4140   -1.3110 hc        1 MOL     -0.001536
    172 H75         5.4030    0.6840    0.4160 hc        1 MOL     -0.085197
    173 H76         6.3920    1.6140    1.6300 hc        1 MOL     -0.085197
    174 N15         6.1420    3.9890   -3.0430 n         1 MOL     -0.235632
    175 C58         6.4690    4.7920   -4.1870 c3        1 MOL     -0.296943
    176 H77         5.6400    4.7690   -4.8950 h1        1 MOL      0.119239
    177 H78         6.6470    5.8200   -3.8720 h1        1 MOL      0.119239
    178 H79         7.3650    4.3970   -4.6650 h1        1 MOL      0.119239
    179 H80         5.2940    3.4310   -3.0730 hn        1 MOL      0.250379
    180 Ca1         7.9270   -3.6720    1.2130 Ca        1 MOL      1.568378
    181 O27        10.0060   -1.9760    1.0380 oh        1 MOL     -0.758995
    182 H81        10.9580   -1.8230    1.0020 ho        1 MOL      0.371738
    183 H82         9.6240   -1.0930    1.0390 ho        1 MOL      0.371738
    184 O28         7.1910   -6.0320    2.8110 oh        1 MOL     -0.758995
    185 H83         6.5910   -6.4270    2.1760 ho        1 MOL      0.371738
    186 H84         6.6420   -5.8380    3.5750 ho        1 MOL      0.371738
    187 O29         9.7260   -5.7350    0.5100 oh        1 MOL     -0.758995
    188 H85        10.2580   -5.3740   -0.2100 ho        1 MOL      0.371738
    189 H86         9.9090   -6.6730    0.4900 ho        1 MOL      0.371738
    190 O30         9.6430   -4.0030    3.2480 oh        1 MOL     -0.758995
    191 H87         9.8550   -4.7510    3.8170 ho        1 MOL      0.371738
    192 H88        10.3490   -3.3800    3.3920 ho        1 MOL      0.371738
    193 O31         7.4610   -2.7160    3.6880 oh        1 MOL     -0.758995
    194 H89         6.7670   -2.2240    4.1370 ho        1 MOL      0.371738
    195 H90         8.1910   -2.7250    4.3040 ho        1 MOL      0.371738
@<TRIPOS>BOND
     1    1    2 1   
     2    1    4 1   
     3    1    5 1   
     4    1    6 1   
     5    2    3 2   
     6    2    7 1   
     7    7    8 1   
     8    7   15 1   
     9    8    9 1   
    10    8   11 1   
    11    8   16 1   
    12    9   10 2   
    13    9   19 1   
    14   11   12 1   
    15   11   17 1   
    16   11   18 1   
    17   12   13 1   
    18   12   14 1   
    19   19   20 1   
    20   19   27 1   
    21   20   21 1   
    22   20   23 1   
    23   20   28 1   
    24   21   22 2   
    25   21   38 1   
    26   23   24 1   
    27   23   25 1   
    28   23   29 1   
    29   24   26 1   
    30   24   30 1   
    31   24   31 1   
    32   25   32 1   
    33   25   33 1   
    34   25   34 1   
    35   26   35 1   
    36   26   36 1   
    37   26   37 1   
    38   38   39 1   
    39   38   46 1   
    40   39   40 1   
    41   39   42 1   
    42   39   47 1   
    43   40   41 2   
    44   40   50 1   
    45   42   43 1   
    46   42   48 1   
    47   42   49 1   
    48   43   44 1   
    49   43   45 1   
    50   50   51 1   
    51   50   54 1   
    52   51   52 1   
    53   51   55 1   
    54   51   56 1   
    55   52   53 2   
    56   52   57 1   
    57   57   58 1   
    58   57   65 1   
    59   58   59 1   
    60   58   61 1   
    61   58   66 1   
    62   59   60 2   
    63   59   69 1   
    64   61   62 1   
    65   61   67 1   
    66   61   68 1   
    67   62   63 1   
    68   62   64 1   
    69   69   70 1   
    70   69   73 1   
    71   70   71 1   
    72   70   74 1   
    73   70   75 1   
    74   71   72 2   
    75   71   76 1   
    76   76   77 1   
    77   76   85 1   
    78   77   78 1   
    79   77   80 1   
    80   77   86 1   
    81   78   79 2   
    82   78   93 1   
    83   80   81 1   
    84   80   87 1   
    85   80   88 1   
    86   81   82 1   
    87   81   89 1   
    88   81   90 1   
    89   82   83 1   
    90   82   84 2   
    91   83   91 1   
    92   83   92 1   
    93   93   94 1   
    94   93  100 1   
    95   94   95 1   
    96   94   97 1   
    97   94  101 1   
    98   95   96 2   
    99   95  109 1   
   100   97   98 1   
   101   97   99 1   
   102   97  102 1   
   103   98  103 1   
   104   98  104 1   
   105   98  105 1   
   106   99  106 1   
   107   99  107 1   
   108   99  108 1   
   109  109  110 1   
   110  109  117 1   
   111  110  111 1   
   112  110  113 1   
   113  110  118 1   
   114  111  112 2   
   115  111  123 1   
   116  113  114 1   
   117  113  119 1   
   118  113  120 1   
   119  114  115 1   
   120  114  116 2   
   121  115  121 1   
   122  115  122 1   
   123  123  124 1   
   124  123  135 1   
   125  124  125 1   
   126  124  127 1   
   127  124  136 1   
   128  125  126 2   
   129  125  144 1   
   130  127  128 1   
   131  127  137 1   
   132  127  138 1   
   133  128  129 ar  
   134  128  130 ar  
   135  129  131 ar  
   136  129  139 1   
   137  130  132 ar  
   138  130  140 1   
   139  131  133 ar  
   140  131  141 1   
   141  132  133 ar  
   142  132  142 1   
   143  133  134 1   
   144  134  143 1   
   145  144  145 1   
   146  144  153 1   
   147  145  146 1   
   148  145  148 1   
   149  145  154 1   
   150  146  147 2   
   151  146  159 1   
   152  148  149 1   
   153  148  155 1   
   154  148  156 1   
   155  149  150 1   
   156  149  157 1   
   157  149  158 1   
   158  150  151 1   
   159  150  152 1   
   160  159  160 1   
   161  159  168 1   
   162  160  161 1   
   163  160  163 1   
   164  160  169 1   
   165  161  162 2   
   166  161  174 1   
   167  163  164 1   
   168  163  170 1   
   169  163  171 1   
   170  164  165 1   
   171  164  172 1   
   172  164  173 1   
   173  165  166 1   
   174  165  167 1   
   175  174  175 1   
   176  174  179 1   
   177  175  176 1   
   178  175  177 1   
   179  175  178 1   
   180  181  182 1   
   181  181  183 1   
   182  184  185 1   
   183  184  186 1   
   184  187  188 1   
   185  187  189 1   
   186  190  191 1   
   187  190  192 1   
   188  193  194 1   
   189  193  195 1   
@<TRIPOS>SUBSTRUCTURE
     1 MOL         1 TEMP              0 ****  ****    0 ROOT
