@<TRIPOS>MOLECULE
MOL
  182   178     1     0     0
SMALL
resp


@<TRIPOS>ATOM
      1 C1          0.1620   -3.2180    6.3400 c3        1 MOL     -0.405396
      2 C2          0.4060   -3.0610    4.8560 c         1 MOL      0.823559
      3 O1         -0.5170   -2.9340    4.0610 o         1 MOL     -0.642631
      4 H1         -0.9090   -3.1740    6.5370 hc        1 MOL      0.113741
      5 H2          0.5530   -4.1790    6.6730 hc        1 MOL      0.113741
      6 H3          0.6630   -2.4130    6.8780 hc        1 MOL      0.113741
      7 N1          1.6310   -3.0630    4.4060 n         1 MOL     -0.620797
      8 C3          2.0430   -2.7820    3.0220 c3        1 MOL      0.006622
      9 C4          2.1820   -4.0750    2.2310 c         1 MOL      0.664628
     10 O2          2.8160   -5.0310    2.7130 o         1 MOL     -0.574211
     11 C5          3.3380   -1.8950    3.0100 c3        1 MOL      0.001102
     12 C6          3.4300   -1.1930    1.6180 c         1 MOL      0.450477
     13 O3          3.9020   -0.0630    1.6130 o         1 MOL     -0.626672
     14 O4          3.1000   -1.7210    0.5470 o         1 MOL     -0.626672
     15 H4          2.4470   -3.2020    4.9890 hn        1 MOL      0.323281
     16 H5          1.3050   -2.1300    2.5400 h1        1 MOL      0.067481
     17 H6          4.2010   -2.5420    3.1390 hc        1 MOL      0.034475
     18 H7          3.3370   -1.1610    3.8150 hc        1 MOL      0.034475
     19 N2          1.6270   -4.1100    1.0170 n         1 MOL     -0.291179
     20 C7          1.7850   -5.3010    0.0860 c3        1 MOL     -0.010093
     21 C8          3.0540   -5.3100   -0.7080 c         1 MOL      0.510955
     22 O5          3.4130   -6.3820   -1.1040 o         1 MOL     -0.572061
     23 C9          0.5990   -5.4180   -0.8110 c3        1 MOL     -0.028837
     24 C10         0.5380   -6.6510   -1.7670 c3        1 MOL     -0.091427
     25 C11        -0.7500   -6.5870   -2.5700 c3        1 MOL      0.038978
     26 C12        -0.9090   -7.8110   -3.4270 c3        1 MOL      0.127645
     27 N3         -2.2610   -8.0640   -3.9010 n4        1 MOL     -0.319860
     28 H8          1.3350   -3.2480    0.5900 hn        1 MOL     -0.103021
     29 H9          1.8350   -6.1670    0.7470 h1        1 MOL      0.111762
     30 H10         0.4080   -4.4910   -1.3670 hc        1 MOL      0.047467
     31 H11        -0.3100   -5.4400   -0.2170 hc        1 MOL      0.047467
     32 H12         0.6850   -7.5490   -1.1670 hc        1 MOL      0.056178
     33 H13         1.3620   -6.6580   -2.4820 hc        1 MOL      0.056178
     34 H14        -0.7510   -5.6620   -3.1530 hc        1 MOL      0.009072
     35 H15        -1.5690   -6.6150   -1.8470 hc        1 MOL      0.009072
     36 H16        -0.5610   -8.6770   -2.8650 hx        1 MOL      0.034754
     37 H17        -0.1740   -7.7280   -4.2290 hx        1 MOL      0.034754
     38 H18        -2.1350   -8.8900   -4.4710 hn        1 MOL      0.261773
     39 H19        -2.8620   -8.3420   -3.1430 hn        1 MOL      0.261773
     40 H20        -2.5760   -7.2940   -4.4780 hn        1 MOL      0.261773
     41 N4          3.6820   -4.1670   -1.0000 n         1 MOL     -0.173313
     42 C13         4.9100   -4.0770   -1.8160 c3        1 MOL      0.041430
     43 C14         6.0040   -3.3650   -0.9180 c         1 MOL      0.360052
     44 O6          7.1690   -3.1870   -1.3660 o         1 MOL     -0.520896
     45 C15         4.6730   -3.1910   -3.0720 c3        1 MOL     -0.188241
     46 C16         4.1110   -1.7980   -2.7160 c         1 MOL      0.754752
     47 O7          2.9200   -1.4950   -2.9150 o         1 MOL     -0.717318
     48 O8          4.7680   -1.0030   -2.0250 o         1 MOL     -0.717318
     49 H21         3.1560   -3.3470   -0.7500 hn        1 MOL      0.097727
     50 H22         5.2740   -5.0520   -2.1250 h1        1 MOL      0.120385
     51 H23         3.9520   -3.6670   -3.7510 hc        1 MOL      0.053493
     52 H24         5.6420   -3.1220   -3.5790 hc        1 MOL      0.053493
     53 N5          5.6360   -2.9360    0.2900 n         1 MOL     -0.158677
     54 C17         6.6150   -2.3880    1.2720 c3        1 MOL     -0.094428
     55 C18         7.2510   -0.9890    0.9770 c         1 MOL      0.417886
     56 O9          8.2150   -0.6210    1.6370 o         1 MOL     -0.529080
     57 H25         4.6760   -3.0840    0.5370 hn        1 MOL      0.133295
     58 H26         7.3760   -3.1660    1.3630 h1        1 MOL      0.098996
     59 H27         6.1840   -2.3580    2.2690 h1        1 MOL      0.098996
     60 N6          6.7500   -0.2870   -0.0700 n         1 MOL     -0.003821
     61 C19         7.1680    1.0330   -0.4600 c3        1 MOL     -0.165047
     62 C20         6.0870    2.1020   -0.3740 c         1 MOL      0.560845
     63 O10         4.8710    1.8710   -0.5590 o         1 MOL     -0.536529
     64 C21         7.7180    0.8680   -1.8920 c3        1 MOL     -0.046317
     65 C22         9.0240    0.0640   -1.9850 c         1 MOL      0.567146
     66 N7          9.0490   -1.2720   -1.8820 n         1 MOL     -0.647061
     67 O11        10.0560    0.6780   -2.2050 o         1 MOL     -0.564553
     68 H28         5.9950   -0.7180   -0.5840 hn        1 MOL      0.107473
     69 H29         8.0670    1.3270    0.0720 h1        1 MOL      0.105900
     70 H30         7.9400    1.8570   -2.2860 hc        1 MOL      0.014471
     71 H31         6.9960    0.5000   -2.6110 hc        1 MOL      0.014471
     72 H32         8.2430   -1.8860   -1.8260 hn        1 MOL      0.313729
     73 H33         9.8370   -1.7980   -2.2250 hn        1 MOL      0.313729
     74 N8          6.5920    3.2780   -0.1410 n         1 MOL     -0.406836
     75 C23         5.8180    4.5220   -0.2760 c3        1 MOL     -0.029511
     76 C24         4.4010    4.5040    0.4010 c         1 MOL      0.570471
     77 O12         4.2810    4.0260    1.5580 o         1 MOL     -0.502314
     78 H34         7.6050    3.3680   -0.0790 hn        1 MOL      0.325607
     79 H35         5.5780    4.7610   -1.3140 h1        1 MOL      0.067385
     80 H36         6.2290    5.4290    0.1560 h1        1 MOL      0.067385
     81 N9          3.3480    4.9750   -0.2490 n         1 MOL     -0.556641
     82 C25         1.9890    4.9660    0.2970 c3        1 MOL      0.116325
     83 C26         1.4730    3.5320    0.6720 c         1 MOL      0.457089
     84 O13         1.9420    2.5770   -0.0350 o         1 MOL     -0.585918
     85 C27         1.1390    5.6500   -0.7810 c3        1 MOL     -0.058216
     86 C28         1.3810    7.1480   -0.8020 ca        1 MOL      0.074178
     87 C29         1.4030    7.9610    0.3110 ca        1 MOL     -0.197152
     88 C30         1.5230    7.6980   -2.1040 ca        1 MOL     -0.197152
     89 C31         1.4910    9.3720    0.1030 ca        1 MOL     -0.220932
     90 C32         1.8120    9.0570   -2.2920 ca        1 MOL     -0.220932
     91 C33         1.8590    9.9460   -1.1350 ca        1 MOL      0.287534
     92 O14         2.2020   11.2640   -1.2490 oh        1 MOL     -0.432762
     93 H37         3.4670    5.2000   -1.2250 hn        1 MOL      0.316718
     94 H38         1.9900    5.5440    1.2150 h1        1 MOL      0.056609
     95 H39         0.1260    5.4410   -0.4270 hc        1 MOL      0.042394
     96 H40         1.2480    5.2280   -1.7850 hc        1 MOL      0.042394
     97 H41         1.1950    7.5310    1.2780 ha        1 MOL      0.142128
     98 H42         1.3210    7.0490   -2.9460 ha        1 MOL      0.142128
     99 H43         1.4370   10.0160    0.9640 ha        1 MOL      0.151523
    100 H44         1.9040    9.4730   -3.2750 ha        1 MOL      0.151523
    101 H45         2.3260   11.6140   -0.3640 ho        1 MOL      0.346282
    102 N10         0.5700    3.3400    1.6370 n         1 MOL     -0.448569
    103 C34         0.1380    2.0590    2.3020 c3        1 MOL      0.068222
    104 C35        -0.0610    0.7920    1.4340 c         1 MOL      0.097701
    105 O15         0.8980    0.1620    0.9390 o         1 MOL     -0.111395
    106 C36         1.1300    1.6150    3.4400 c3        1 MOL      0.397477
    107 C37         0.6600    0.4510    4.3250 c3        1 MOL     -0.226862
    108 C38         1.4540    2.7850    4.4560 c3        1 MOL     -0.420832
    109 C39        -0.7000    0.4660    5.0440 c3        1 MOL     -0.217792
    110 H46         0.2870    4.1800    2.1240 hn        1 MOL      0.296084
    111 H47        -0.8280    2.3610    2.7000 h1        1 MOL      0.055956
    112 H48         2.0520    1.2420    2.9900 hc        1 MOL     -0.030839
    113 H49         1.4100    0.2160    5.0810 hc        1 MOL      0.100832
    114 H50         0.5690   -0.3980    3.6510 hc        1 MOL      0.100832
    115 H51         0.5660    3.3200    4.7980 hc        1 MOL      0.097400
    116 H52         2.0540    2.3450    5.2540 hc        1 MOL      0.097400
    117 H53         2.1250    3.4740    3.9430 hc        1 MOL      0.097400
    118 H54        -0.7070   -0.1820    5.9240 hc        1 MOL      0.053233
    119 H55        -0.9320    1.4860    5.3490 hc        1 MOL      0.053233
    120 H56        -1.5550    0.0810    4.4900 hc        1 MOL      0.053233
    121 N11        -1.3280    0.3860    1.3080 n         1 MOL     -0.140901
    122 C40        -1.7990   -0.7160    0.4480 c3        1 MOL     -0.468443
    123 C41        -3.2540   -0.8590    0.0770 c         1 MOL      0.800965
    124 O16        -3.5060   -1.6140   -0.8710 o         1 MOL     -0.577648
    125 C42        -1.2990   -2.0840    1.0210 c3        1 MOL      0.436080
    126 O17        -2.1830   -2.4220    2.0610 oh        1 MOL     -0.638187
    127 H57        -2.0350    0.9650    1.7450 hn        1 MOL      0.217862
    128 H58        -1.2710   -0.7350   -0.5080 h1        1 MOL      0.122266
    129 H59        -0.2450   -2.0020    1.2900 h1        1 MOL     -0.003022
    130 H60        -1.3430   -2.8730    0.2710 h1        1 MOL     -0.003022
    131 H61        -1.5980   -2.4660    2.8250 ho        1 MOL      0.409179
    132 N12        -4.1430   -0.0770    0.7010 n         1 MOL     -0.593865
    133 C43        -5.5450    0.1150    0.2360 c3        1 MOL      0.063529
    134 C44        -5.6150    0.6640   -1.2150 c         1 MOL      0.609929
    135 O18        -4.5800    1.1530   -1.7130 o         1 MOL     -0.573107
    136 C45        -6.2290    0.8890    1.3950 c3        1 MOL     -0.354048
    137 H62        -3.7770    0.5170    1.4360 hn        1 MOL      0.334719
    138 H63        -5.9490   -0.8910    0.1650 h1        1 MOL      0.116583
    139 H64        -6.0990    0.4690    2.4000 hc        1 MOL      0.115934
    140 H65        -5.7660    1.8760    1.4390 hc        1 MOL      0.115934
    141 H66        -7.2980    1.0530    1.2480 hc        1 MOL      0.115934
    142 N13        -6.7510    0.6350   -1.8820 n         1 MOL     -0.573379
    143 C46        -8.0080    0.0390   -1.5760 c3        1 MOL      0.424089
    144 C47        -9.1690    0.6490   -2.4830 c         1 MOL      0.397610
    145 O19        -8.9330    1.0450   -3.6320 o         1 MOL     -0.546625
    146 C48        -8.0550   -1.4630   -1.8550 c3        1 MOL     -0.233836
    147 H67        -6.7190    1.1100   -2.7680 hn        1 MOL      0.294662
    148 H68        -8.1830    0.2200   -0.5220 h1        1 MOL     -0.044714
    149 H69        -7.7210   -1.7340   -2.8590 hc        1 MOL      0.065559
    150 H70        -7.3610   -1.9100   -1.1480 hc        1 MOL      0.065559
    151 H71        -9.0260   -1.9470   -1.7160 hc        1 MOL      0.065559
    152 N14       -10.4000    0.6940   -2.0770 n         1 MOL     -0.359653
    153 C49       -10.8020    0.3490   -0.7450 c3        1 MOL     -0.266419
    154 C50       -10.4390    1.4160    0.2050 c         1 MOL      0.595738
    155 O20       -10.0190    1.1370    1.2960 o         1 MOL     -0.517478
    156 C51       -12.3570    0.0480   -0.6830 c3        1 MOL      0.312052
    157 C52       -12.6240   -0.8040    0.5760 c3        1 MOL     -0.305640
    158 C53       -14.1200   -1.1300    0.5790 c         1 MOL      0.690761
    159 O21       -14.9730   -0.2280    0.2840 o         1 MOL     -0.641824
    160 O22       -14.4990   -2.3030    0.7990 o         1 MOL     -0.641824
    161 H72       -11.0040    1.1450   -2.7450 hn        1 MOL      0.304126
    162 H73       -10.3190   -0.5340   -0.3300 h1        1 MOL      0.112640
    163 H74       -12.7740   -0.4360   -1.5570 hc        1 MOL     -0.038549
    164 H75       -13.0090    0.9230   -0.6750 hc        1 MOL     -0.038549
    165 H76       -12.4580   -0.1720    1.4490 hc        1 MOL      0.061121
    166 H77       -12.0530   -1.7220    0.7590 hc        1 MOL      0.061121
    167 N15       -10.4210    2.6980   -0.1690 n         1 MOL     -0.367057
    168 C54        -9.5280    3.6780    0.4100 c3        1 MOL     -0.206694
    169 H78        -9.3700    4.4900   -0.3000 h1        1 MOL      0.098879
    170 H79        -9.9690    4.0760    1.3240 h1        1 MOL      0.098879
    171 H80        -8.5720    3.2080    0.6420 h1        1 MOL      0.098879
    172 H81       -10.7880    3.0040   -1.0640 hn        1 MOL      0.277772
    173 Ca1         2.8050    0.2910   -0.9510 Ca        1 MOL      1.715387
    174 O23         3.0450    1.6360   -3.2800 oh        1 MOL     -0.804756
    175 H82         3.0540    1.1960   -4.1260 ho        1 MOL      0.402948
    176 H83         3.3670    2.5230   -3.4700 ho        1 MOL      0.402948
    177 O24         0.2710    0.9140   -2.2710 oh        1 MOL     -0.804756
    178 H84        -0.0650    1.6580   -1.7600 ho        1 MOL      0.402948
    179 H85        -0.5080    0.4630   -2.5710 ho        1 MOL      0.402948
    180 O25         0.6530   -1.9310   -1.4480 oh        1 MOL     -0.804756
    181 H86        -0.2070   -2.0200   -1.8390 ho        1 MOL      0.402948
    182 H87         1.2690   -2.0760   -2.1690 ho        1 MOL      0.402948
@<TRIPOS>BOND
     1    1    2 1   
     2    1    4 1   
     3    1    5 1   
     4    1    6 1   
     5    2    3 2   
     6    2    7 1   
     7    7    8 1   
     8    7   15 1   
     9    8    9 1   
    10    8   11 1   
    11    8   16 1   
    12    9   10 2   
    13    9   19 1   
    14   11   12 1   
    15   11   17 1   
    16   11   18 1   
    17   12   13 1   
    18   12   14 1   
    19   19   20 1   
    20   19   28 1   
    21   20   21 1   
    22   20   23 1   
    23   20   29 1   
    24   21   22 2   
    25   21   41 1   
    26   23   24 1   
    27   23   30 1   
    28   23   31 1   
    29   24   25 1   
    30   24   32 1   
    31   24   33 1   
    32   25   26 1   
    33   25   34 1   
    34   25   35 1   
    35   26   27 1   
    36   26   36 1   
    37   26   37 1   
    38   27   38 1   
    39   27   39 1   
    40   27   40 1   
    41   41   42 1   
    42   41   49 1   
    43   42   43 1   
    44   42   45 1   
    45   42   50 1   
    46   43   44 2   
    47   43   53 1   
    48   45   46 1   
    49   45   51 1   
    50   45   52 1   
    51   46   47 1   
    52   46   48 1   
    53   53   54 1   
    54   53   57 1   
    55   54   55 1   
    56   54   58 1   
    57   54   59 1   
    58   55   56 2   
    59   55   60 1   
    60   60   61 1   
    61   60   68 1   
    62   61   62 1   
    63   61   64 1   
    64   61   69 1   
    65   62   63 2   
    66   62   74 1   
    67   64   65 1   
    68   64   70 1   
    69   64   71 1   
    70   65   66 1   
    71   65   67 2   
    72   66   72 1   
    73   66   73 1   
    74   74   75 1   
    75   74   78 1   
    76   75   76 1   
    77   75   79 1   
    78   75   80 1   
    79   76   77 2   
    80   76   81 1   
    81   81   82 1   
    82   81   93 1   
    83   82   83 1   
    84   82   85 1   
    85   82   94 1   
    86   83   84 2   
    87   83  102 1   
    88   85   86 1   
    89   85   95 1   
    90   85   96 1   
    91   86   87 ar  
    92   86   88 ar  
    93   87   89 ar  
    94   87   97 1   
    95   88   90 ar  
    96   88   98 1   
    97   89   91 ar  
    98   89   99 1   
    99   90   91 ar  
   100   90  100 1   
   101   91   92 1   
   102   92  101 1   
   103  102  103 1   
   104  102  110 1   
   105  103  104 1   
   106  103  106 1   
   107  103  111 1   
   108  104  105 2   
   109  104  121 1   
   110  106  107 1   
   111  106  108 1   
   112  106  112 1   
   113  107  109 1   
   114  107  113 1   
   115  107  114 1   
   116  108  115 1   
   117  108  116 1   
   118  108  117 1   
   119  109  118 1   
   120  109  119 1   
   121  109  120 1   
   122  121  122 1   
   123  121  127 1   
   124  122  123 1   
   125  122  125 1   
   126  122  128 1   
   127  123  124 2   
   128  123  132 1   
   129  125  126 1   
   130  125  129 1   
   131  125  130 1   
   132  126  131 1   
   133  132  133 1   
   134  132  137 1   
   135  133  134 1   
   136  133  136 1   
   137  133  138 1   
   138  134  135 2   
   139  134  142 1   
   140  136  139 1   
   141  136  140 1   
   142  136  141 1   
   143  142  143 1   
   144  142  147 1   
   145  143  144 1   
   146  143  146 1   
   147  143  148 1   
   148  144  145 2   
   149  144  152 1   
   150  146  149 1   
   151  146  150 1   
   152  146  151 1   
   153  152  153 1   
   154  152  161 1   
   155  153  154 1   
   156  153  156 1   
   157  153  162 1   
   158  154  155 2   
   159  154  167 1   
   160  156  157 1   
   161  156  163 1   
   162  156  164 1   
   163  157  158 1   
   164  157  165 1   
   165  157  166 1   
   166  158  159 1   
   167  158  160 1   
   168  167  168 1   
   169  167  172 1   
   170  168  169 1   
   171  168  170 1   
   172  168  171 1   
   173  174  175 1   
   174  174  176 1   
   175  177  178 1   
   176  177  179 1   
   177  180  181 1   
   178  180  182 1   
@<TRIPOS>SUBSTRUCTURE
     1 MOL         1 TEMP              0 ****  ****    0 ROOT
