@<TRIPOS>MOLECULE
MOL
  188   182     1     0     0
SMALL
resp


@<TRIPOS>ATOM
      1 C1          8.0120    5.4430    1.5080 c3        1 MOL     -0.464285
      2 C2          8.7670    4.0880    1.6160 c         1 MOL      0.681517
      3 O1          8.3420    3.2590    2.4240 o         1 MOL     -0.583857
      4 H1          8.6220    6.1550    0.9510 hc        1 MOL      0.113235
      5 H2          7.0650    5.2920    0.9900 hc        1 MOL      0.113235
      6 H3          7.8210    5.8330    2.5080 hc        1 MOL      0.113235
      7 N1          9.9210    3.9680    1.0200 n         1 MOL     -0.492665
      8 C3         10.7270    2.7120    1.2630 c3        1 MOL      0.058536
      9 C4          9.9740    1.7340    0.3220 c         1 MOL      0.507700
     10 O2          9.9590    1.9310   -0.9140 o         1 MOL     -0.542243
     11 C5         12.1800    2.8470    0.8530 c3        1 MOL     -0.209281
     12 C6         13.0520    1.5640    1.1860 c         1 MOL      0.667920
     13 O3         12.5210    0.4320    1.4560 o         1 MOL     -0.667547
     14 O4         14.2960    1.6700    1.1640 o         1 MOL     -0.667547
     15 H4         10.2760    4.7980    0.5610 hn        1 MOL      0.299130
     16 H5         10.6700    2.4080    2.3040 h1        1 MOL      0.091183
     17 H6         12.6750    3.6290    1.4230 hc        1 MOL      0.067995
     18 H7         12.3720    3.0940   -0.1970 hc        1 MOL      0.067995
     19 N2          9.4110    0.7140    0.9300 n         1 MOL     -0.642963
     20 C7          8.5900   -0.3100    0.2810 c3        1 MOL      0.538879
     21 C8          7.2930   -0.4770    1.0400 c         1 MOL      0.574192
     22 O5          7.3280   -0.5480    2.3120 o         1 MOL     -0.558072
     23 C9          9.3480   -1.6650    0.2290 c3        1 MOL     -0.231313
     24 C10         8.4680   -2.7530   -0.5100 c3        1 MOL     -0.094658
     25 C11         9.0990   -4.1810   -0.3960 c3        1 MOL     -0.129542
     26 C12         8.9780   -4.7850    1.0090 c3        1 MOL      0.078944
     27 N3          9.7610   -6.0390    1.1040 n4        1 MOL     -0.296013
     28 H8          9.6040    0.5290    1.8980 hn        1 MOL      0.315592
     29 H9          8.3320    0.0300   -0.7180 h1        1 MOL     -0.045515
     30 H10         9.5070   -1.9840    1.2640 hc        1 MOL      0.100681
     31 H11        10.2500   -1.5110   -0.3720 hc        1 MOL      0.100681
     32 H12         8.4700   -2.4100   -1.5540 hc        1 MOL      0.057816
     33 H13         7.4630   -2.9370   -0.1250 hc        1 MOL      0.057816
     34 H14        10.0920   -4.2150   -0.8250 hc        1 MOL      0.063827
     35 H15         8.6160   -4.8870   -1.0780 hc        1 MOL      0.063827
     36 H16         7.9260   -4.9710    1.2280 hx        1 MOL      0.066893
     37 H17         9.2770   -4.0120    1.7130 hx        1 MOL      0.066893
     38 H18         9.7590   -6.5650    1.9760 hn        1 MOL      0.274672
     39 H19         9.4640   -6.6560    0.3620 hn        1 MOL      0.274672
     40 H20        10.7560   -5.9870    0.9550 hn        1 MOL      0.274672
     41 N4          6.1640   -0.5430    0.3080 n         1 MOL     -0.555994
     42 C13         4.7280   -0.6320    0.7510 c3        1 MOL      0.171664
     43 C14         4.1740   -2.0460    0.8730 c         1 MOL      0.520943
     44 O6          4.4430   -2.8650   -0.0160 o         1 MOL     -0.506754
     45 C15         3.7960    0.0950   -0.2890 c3        1 MOL     -0.251785
     46 C16         2.3570    0.2480    0.2320 c         1 MOL      0.722667
     47 O7          1.6760   -0.8120    0.3100 o         1 MOL     -0.727586
     48 O8          1.8730    1.3280    0.6820 o         1 MOL     -0.727586
     49 H21         6.2370   -0.8820   -0.6430 hn        1 MOL      0.257540
     50 H22         4.6930   -0.1300    1.7070 h1        1 MOL      0.064840
     51 H23         3.7790   -0.4940   -1.2010 hc        1 MOL      0.084779
     52 H24         4.3180    1.0450   -0.4020 hc        1 MOL      0.084779
     53 N5          3.3980   -2.3960    1.8840 n         1 MOL     -0.488194
     54 C17         2.9600   -3.7680    2.1510 c3        1 MOL     -0.065886
     55 C18         1.7670   -4.3750    1.3830 c         1 MOL      0.421106
     56 O9          1.5290   -5.5740    1.5300 o         1 MOL     -0.545472
     57 H25         3.0890   -1.6710    2.5130 hn        1 MOL      0.261711
     58 H26         2.6240   -3.8600    3.1840 h1        1 MOL      0.106837
     59 H27         3.7580   -4.5060    2.0960 h1        1 MOL      0.106837
     60 N6          1.1410   -3.6050    0.5230 n         1 MOL     -0.131579
     61 C19         0.3950   -4.0330   -0.6170 c3        1 MOL      0.079970
     62 C20         0.7630   -3.3110   -1.9360 c         1 MOL      0.294693
     63 O10        -0.0190   -3.3030   -2.8830 o         1 MOL     -0.407442
     64 C21        -1.0980   -4.1570   -0.2760 c3        1 MOL     -0.375760
     65 C22        -1.6990   -2.9240    0.3810 c         1 MOL      0.776952
     66 N7         -2.7390   -3.1020    1.1380 n         1 MOL     -0.761010
     67 O11        -1.1480   -1.8010    0.2700 o         1 MOL     -0.672428
     68 H28         1.5180   -2.6810    0.4030 hn        1 MOL      0.170258
     69 H29         0.8160   -4.9950   -0.9110 h1        1 MOL      0.091905
     70 H30        -1.1180   -4.9990    0.4120 hc        1 MOL      0.133359
     71 H31        -1.6410   -4.4390   -1.1780 hc        1 MOL      0.133359
     72 H32        -3.1840   -3.9900    1.3250 hn        1 MOL      0.356542
     73 H33        -3.2810   -2.3350    1.5170 hn        1 MOL      0.356542
     74 N8          2.0290   -2.8600   -2.0330 n         1 MOL     -0.042343
     75 C23         2.5560   -2.2100   -3.2430 c3        1 MOL     -0.340350
     76 C24         1.8600   -0.9560   -3.7670 c         1 MOL      0.597773
     77 O12         2.0370   -0.5760   -4.9550 o         1 MOL     -0.509844
     78 H34         2.6070   -3.0960   -1.2410 hn        1 MOL      0.118652
     79 H35         2.4400   -2.9410   -4.0570 h1        1 MOL      0.142053
     80 H36         3.5710   -1.9800   -2.9450 h1        1 MOL      0.142053
     81 N9          1.1010   -0.2890   -2.8450 n         1 MOL     -0.390411
     82 C25         0.3460    0.9590   -3.0790 c3        1 MOL     -0.072838
     83 C26        -0.7510    1.1940   -2.0690 c         1 MOL      0.389563
     84 O13        -0.6110    1.1590   -0.8590 o         1 MOL     -0.476059
     85 C27         1.3070    2.1140   -3.0350 c3        1 MOL     -0.216550
     86 C28         0.7040    3.5730   -2.9920 ca        1 MOL      0.015112
     87 C29         0.1460    4.1590   -4.1280 ca        1 MOL     -0.129465
     88 C30         0.6430    4.2310   -1.7530 ca        1 MOL     -0.129465
     89 C31        -0.4710    5.4010   -4.1190 ca        1 MOL     -0.241399
     90 C32         0.1960    5.5960   -1.7720 ca        1 MOL     -0.241399
     91 C33        -0.3150    6.2020   -2.9240 ca        1 MOL      0.301494
     92 O14        -0.7890    7.4530   -2.9610 oh        1 MOL     -0.431741
     93 H37         1.0400   -0.6990   -1.9210 hn        1 MOL      0.281567
     94 H38        -0.0470    0.9010   -4.0910 h1        1 MOL      0.101231
     95 H39         2.0360    2.0830   -3.8590 hc        1 MOL      0.124162
     96 H40         1.8430    2.0170   -2.0920 hc        1 MOL      0.124162
     97 H41         0.1710    3.5620   -5.0340 ha        1 MOL      0.136745
     98 H42         1.0450    3.7270   -0.8870 ha        1 MOL      0.136745
     99 H43        -0.9750    5.8120   -4.9790 ha        1 MOL      0.142044
    100 H44         0.2730    6.1590   -0.8460 ha        1 MOL      0.142044
    101 H45        -0.6870    7.8960   -2.1090 ho        1 MOL      0.353296
    102 N10        -1.9970    1.3010   -2.5960 n         1 MOL     -0.209414
    103 C34        -3.3120    1.3550   -1.9220 c3        1 MOL      0.022956
    104 C35        -3.9340   -0.0600   -1.8780 c         1 MOL      0.261766
    105 O15        -4.7610   -0.2730   -0.9650 o         1 MOL     -0.287796
    106 C36        -4.1380    2.4890   -2.5650 c3        1 MOL      0.098023
    107 C37        -3.4030    3.8750   -2.7140 c3        1 MOL      0.123330
    108 C38        -5.5530    2.6970   -2.0940 c3        1 MOL     -0.324289
    109 C39        -3.1280    4.5770   -1.4440 c3        1 MOL     -0.065547
    110 H46        -2.0940    1.5280   -3.5760 hn        1 MOL      0.219727
    111 H47        -3.1690    1.4750   -0.8470 h1        1 MOL      0.017996
    112 H48        -4.2140    2.2130   -3.6190 hc        1 MOL     -0.047602
    113 H49        -4.0130    4.5120   -3.3500 hc        1 MOL     -0.000824
    114 H50        -2.4420    3.7210   -3.2050 hc        1 MOL     -0.000824
    115 H51        -6.2220    2.3080   -2.8580 hc        1 MOL      0.098194
    116 H52        -5.6420    2.2330   -1.1110 hc        1 MOL      0.098194
    117 H53        -5.7760    3.7640   -2.0510 hc        1 MOL      0.098194
    118 H54        -2.3850    4.0600   -0.8490 hc        1 MOL     -0.003069
    119 H55        -2.7100    5.5610   -1.6630 hc        1 MOL     -0.003069
    120 H56        -4.0810    4.6770   -0.9020 hc        1 MOL     -0.003069
    121 N11        -3.5480   -0.9580   -2.7800 n         1 MOL     -0.139960
    122 C40        -3.8870   -2.3740   -2.8140 c3        1 MOL      0.028021
    123 C41        -5.3670   -2.6510   -2.5690 c         1 MOL      0.278188
    124 O16        -5.7590   -3.4170   -1.7460 o         1 MOL     -0.442915
    125 C42        -3.4600   -3.0080   -4.1920 c3        1 MOL      0.252850
    126 O17        -2.2120   -2.5600   -4.5410 oh        1 MOL     -0.513999
    127 H57        -2.9370   -0.6400   -3.5260 hn        1 MOL      0.157894
    128 H58        -3.3970   -2.9130   -2.0090 h1        1 MOL      0.039579
    129 H59        -4.1260   -2.5480   -4.9340 h1        1 MOL      0.016758
    130 H60        -3.5180   -4.0960   -4.2480 h1        1 MOL      0.016758
    131 H61        -1.6440   -2.7410   -3.7910 ho        1 MOL      0.286303
    132 N12        -6.2540   -1.8970   -3.1680 n         1 MOL     -0.369456
    133 C43        -7.7460   -1.8910   -2.9170 c3        1 MOL      0.240978
    134 C44        -8.2360   -1.9930   -1.4460 c         1 MOL      0.399246
    135 O18        -9.3160   -2.4700   -1.2040 o         1 MOL     -0.530388
    136 C45        -8.3430   -2.9950   -3.8510 c3        1 MOL     -0.309560
    137 H62        -5.9260   -1.2030   -3.8240 hn        1 MOL      0.251005
    138 H63        -8.0860   -0.9860   -3.4110 h1        1 MOL      0.033142
    139 H64        -7.9540   -3.9930   -3.6280 hc        1 MOL      0.091705
    140 H65        -9.4340   -3.0350   -3.8240 hc        1 MOL      0.091705
    141 H66        -7.9320   -2.8150   -4.8460 hc        1 MOL      0.091705
    142 N13        -7.4910   -1.5440   -0.4580 n         1 MOL     -0.213764
    143 C46        -7.8890   -1.6620    1.0260 c3        1 MOL      0.220645
    144 C47        -8.1720   -0.2290    1.5830 c         1 MOL      0.456488
    145 O19        -7.4160    0.7150    1.2880 o         1 MOL     -0.473592
    146 C48        -6.6070   -2.1800    1.7200 c3        1 MOL     -0.081785
    147 H67        -6.6360   -1.0190   -0.5840 hn        1 MOL     -0.022895
    148 H68        -8.7800   -2.2840    1.1820 h1        1 MOL      0.035486
    149 H69        -5.9790   -1.3580    2.0880 hc        1 MOL      0.020490
    150 H70        -6.9160   -2.7220    2.6220 hc        1 MOL      0.020490
    151 H71        -6.0280   -2.8200    1.0610 hc        1 MOL      0.020490
    152 N14        -9.2280   -0.1400    2.3890 n         1 MOL     -0.570580
    153 C49        -9.6470    1.0550    3.1700 c3        1 MOL      0.049799
    154 C50       -10.0130    2.2430    2.2070 c         1 MOL      0.424121
    155 O20        -9.8010    3.3990    2.6860 o         1 MOL     -0.486107
    156 C51        -8.4990    1.3080    4.2620 c3        1 MOL      0.141308
    157 C52        -8.3870    0.1000    5.1360 c3        1 MOL     -0.098221
    158 C53        -7.7220    0.5550    6.5010 c         1 MOL      0.677683
    159 O21        -8.4660    0.7820    7.4460 o         1 MOL     -0.686908
    160 O22        -6.4560    0.4850    6.6020 o         1 MOL     -0.686908
    161 H72        -9.8730   -0.9110    2.5120 hn        1 MOL      0.323258
    162 H73       -10.5800    0.7630    3.6470 h1        1 MOL      0.089458
    163 H74        -8.7320    2.1920    4.8570 hc        1 MOL     -0.019357
    164 H75        -7.5070    1.4260    3.8370 hc        1 MOL     -0.019357
    165 H76        -7.7730   -0.6910    4.7110 hc        1 MOL     -0.019288
    166 H77        -9.3790   -0.2830    5.3780 hc        1 MOL     -0.019288
    167 N15       -10.5330    1.9510    0.9720 n         1 MOL     -0.378393
    168 C54       -10.6660    3.0280   -0.0550 c3        1 MOL     -0.036425
    169 H78       -10.1640    3.9280    0.2970 h1        1 MOL      0.062827
    170 H79       -10.2090    2.6980   -0.9880 h1        1 MOL      0.062827
    171 H80       -11.7220    3.2420   -0.2220 h1        1 MOL      0.062827
    172 H81       -10.6350    1.0000    0.6490 hn        1 MOL      0.267942
    173 Ca1        -0.5230    0.4150    1.6260 Ca        1 MOL      1.802331
    174 O23         0.8140    2.0530    3.3330 oh        1 MOL     -0.865451
    175 H82         0.6210    2.9630    3.5660 ho        1 MOL      0.426634
    176 H83         1.7090    1.9060    3.6310 ho        1 MOL      0.426634
    177 O24         0.5670   -1.5930    3.0310 oh        1 MOL     -0.865451
    178 H84         0.3250   -2.4290    3.4140 ho        1 MOL      0.426634
    179 H85         1.2580   -1.2590    3.5950 ho        1 MOL      0.426634
    180 O25        -3.3310    0.0090    1.5670 oh        1 MOL     -0.865451
    181 H86        -3.9830   -0.0590    0.8690 ho        1 MOL      0.426634
    182 H87        -3.7150    0.6200    2.1930 ho        1 MOL      0.426634
    183 O26        -1.8060    3.0030    1.6680 oh        1 MOL     -0.865451
    184 H88        -1.5260    3.7920    1.2190 ho        1 MOL      0.426634
    185 H89        -2.4730    3.2930    2.2920 ho        1 MOL      0.426634
    186 O27        -1.6940    0.3680    4.0210 oh        1 MOL     -0.865451
    187 H90        -1.2790    0.4480    4.8780 ho        1 MOL      0.426634
    188 H91        -2.6230    0.2220    4.2160 ho        1 MOL      0.426634
@<TRIPOS>BOND
     1    1    2 1   
     2    1    4 1   
     3    1    5 1   
     4    1    6 1   
     5    2    3 2   
     6    2    7 1   
     7    7    8 1   
     8    7   15 1   
     9    8    9 1   
    10    8   11 1   
    11    8   16 1   
    12    9   10 2   
    13    9   19 1   
    14   11   12 1   
    15   11   17 1   
    16   11   18 1   
    17   12   13 1   
    18   12   14 1   
    19   19   20 1   
    20   19   28 1   
    21   20   21 1   
    22   20   23 1   
    23   20   29 1   
    24   21   22 2   
    25   21   41 1   
    26   23   24 1   
    27   23   30 1   
    28   23   31 1   
    29   24   25 1   
    30   24   32 1   
    31   24   33 1   
    32   25   26 1   
    33   25   34 1   
    34   25   35 1   
    35   26   27 1   
    36   26   36 1   
    37   26   37 1   
    38   27   38 1   
    39   27   39 1   
    40   27   40 1   
    41   41   42 1   
    42   41   49 1   
    43   42   43 1   
    44   42   45 1   
    45   42   50 1   
    46   43   44 2   
    47   43   53 1   
    48   45   46 1   
    49   45   51 1   
    50   45   52 1   
    51   46   47 1   
    52   46   48 1   
    53   53   54 1   
    54   53   57 1   
    55   54   55 1   
    56   54   58 1   
    57   54   59 1   
    58   55   56 2   
    59   55   60 1   
    60   60   61 1   
    61   60   68 1   
    62   61   62 1   
    63   61   64 1   
    64   61   69 1   
    65   62   63 2   
    66   62   74 1   
    67   64   65 1   
    68   64   70 1   
    69   64   71 1   
    70   65   66 1   
    71   65   67 2   
    72   66   72 1   
    73   66   73 1   
    74   74   75 1   
    75   74   78 1   
    76   75   76 1   
    77   75   79 1   
    78   75   80 1   
    79   76   77 2   
    80   76   81 1   
    81   81   82 1   
    82   81   93 1   
    83   82   83 1   
    84   82   85 1   
    85   82   94 1   
    86   83   84 2   
    87   83  102 1   
    88   85   86 1   
    89   85   95 1   
    90   85   96 1   
    91   86   87 ar  
    92   86   88 ar  
    93   87   89 ar  
    94   87   97 1   
    95   88   90 ar  
    96   88   98 1   
    97   89   91 ar  
    98   89   99 1   
    99   90   91 ar  
   100   90  100 1   
   101   91   92 1   
   102   92  101 1   
   103  102  103 1   
   104  102  110 1   
   105  103  104 1   
   106  103  106 1   
   107  103  111 1   
   108  104  105 2   
   109  104  121 1   
   110  106  107 1   
   111  106  108 1   
   112  106  112 1   
   113  107  109 1   
   114  107  113 1   
   115  107  114 1   
   116  108  115 1   
   117  108  116 1   
   118  108  117 1   
   119  109  118 1   
   120  109  119 1   
   121  109  120 1   
   122  121  122 1   
   123  121  127 1   
   124  122  123 1   
   125  122  125 1   
   126  122  128 1   
   127  123  124 2   
   128  123  132 1   
   129  125  126 1   
   130  125  129 1   
   131  125  130 1   
   132  126  131 1   
   133  132  133 1   
   134  132  137 1   
   135  133  134 1   
   136  133  136 1   
   137  133  138 1   
   138  134  135 2   
   139  134  142 1   
   140  136  139 1   
   141  136  140 1   
   142  136  141 1   
   143  142  143 1   
   144  142  147 1   
   145  143  144 1   
   146  143  146 1   
   147  143  148 1   
   148  144  145 2   
   149  144  152 1   
   150  146  149 1   
   151  146  150 1   
   152  146  151 1   
   153  152  153 1   
   154  152  161 1   
   155  153  154 1   
   156  153  156 1   
   157  153  162 1   
   158  154  155 2   
   159  154  167 1   
   160  156  157 1   
   161  156  163 1   
   162  156  164 1   
   163  157  158 1   
   164  157  165 1   
   165  157  166 1   
   166  158  159 1   
   167  158  160 1   
   168  167  168 1   
   169  167  172 1   
   170  168  169 1   
   171  168  170 1   
   172  168  171 1   
   173  174  175 1   
   174  174  176 1   
   175  177  178 1   
   176  177  179 1   
   177  180  181 1   
   178  180  182 1   
   179  183  184 1   
   180  183  185 1   
   181  186  187 1   
   182  186  188 1   
@<TRIPOS>SUBSTRUCTURE
     1 MOL         1 TEMP              0 ****  ****    0 ROOT
