@<TRIPOS>MOLECULE
MOL
  198   191     1     0     0
SMALL
resp


@<TRIPOS>ATOM
      1 C1          4.5590   -5.1440    1.1830 c3        1 MOL     -0.444878
      2 C2          3.8900   -3.9730    0.4660 c         1 MOL      0.549222
      3 O1          4.5500   -3.1700   -0.2740 o         1 MOL     -0.574947
      4 H1          3.7960   -5.8430    1.5240 hc        1 MOL      0.122239
      5 H2          5.2350   -5.6520    0.4960 hc        1 MOL      0.122239
      6 H3          5.1200   -4.7730    2.0390 hc        1 MOL      0.122239
      7 N1          2.5830   -3.7460    0.5670 n         1 MOL     -0.193423
      8 C3          1.5010   -4.4370    1.2220 c3        1 MOL      0.025982
      9 C4          0.7260   -5.3630    0.2680 c         1 MOL      0.391260
     10 O2         -0.0120   -6.2610    0.6760 o         1 MOL     -0.489248
     11 C5          0.5870   -3.4940    2.0030 c3        1 MOL     -0.490316
     12 C6          1.2780   -2.1890    2.2840 c         1 MOL      0.815075
     13 O3          2.2530   -2.2200    3.1700 o         1 MOL     -0.745130
     14 O4          1.0360   -1.1060    1.7360 o         1 MOL     -0.745130
     15 H4          2.2720   -3.0720   -0.1050 hn        1 MOL      0.195383
     16 H5          1.9210   -5.1160    1.9660 h1        1 MOL      0.119549
     17 H6          0.2380   -3.9540    2.9280 hc        1 MOL      0.160410
     18 H7         -0.3130   -3.3220    1.4120 hc        1 MOL      0.160410
     19 N2          0.9580   -5.1490   -1.0480 n         1 MOL     -0.261383
     20 C7          0.3940   -5.9530   -2.1930 c3        1 MOL     -0.173438
     21 C8         -1.0680   -6.0100   -2.2970 c         1 MOL      0.414360
     22 O5         -1.6050   -6.8240   -3.0470 o         1 MOL     -0.544910
     23 C9          1.0100   -5.5360   -3.5630 c3        1 MOL      0.017095
     24 C10         0.8110   -4.0380   -3.9330 c3        1 MOL      0.302539
     25 C11         2.5400   -5.7930   -3.5090 c3        1 MOL     -0.202248
     26 C12         1.0140   -3.6860   -5.4210 c3        1 MOL     -0.257579
     27 H8          1.6010   -4.4000   -1.2720 hn        1 MOL      0.206784
     28 H9          0.6810   -7.0000   -2.0950 h1        1 MOL      0.133908
     29 H10         0.6150   -6.1630   -4.3580 hc        1 MOL      0.027533
     30 H11         1.4160   -3.3390   -3.3570 hc        1 MOL     -0.020551
     31 H12        -0.2230   -3.7960   -3.7020 hc        1 MOL     -0.020551
     32 H13         3.0370   -5.4680   -4.4130 hc        1 MOL      0.040208
     33 H14         2.9260   -5.2190   -2.6610 hc        1 MOL      0.040208
     34 H15         2.7730   -6.8430   -3.2990 hc        1 MOL      0.040208
     35 H16         1.8730   -4.1740   -5.8850 hc        1 MOL      0.041746
     36 H17         0.1030   -3.8840   -5.9780 hc        1 MOL      0.041746
     37 H18         1.2460   -2.6130   -5.4220 hc        1 MOL      0.041746
     38 N3         -1.7730   -5.0580   -1.6750 n         1 MOL     -0.098671
     39 C13        -3.2640   -4.9040   -1.8270 c3        1 MOL      0.147533
     40 C14        -3.9290   -4.6740   -0.4640 c         1 MOL      0.413264
     41 O6         -3.3410   -4.5770    0.6270 o         1 MOL     -0.469435
     42 C15        -3.4410   -3.7290   -2.7510 c3        1 MOL     -0.439204
     43 C16        -4.8240   -3.6700   -3.4040 c         1 MOL      0.749733
     44 O7         -5.6910   -4.5830   -3.3530 o         1 MOL     -0.721454
     45 O8         -5.1490   -2.6110   -3.9460 o         1 MOL     -0.721454
     46 H19        -1.2710   -4.4310   -1.0590 hn        1 MOL      0.056480
     47 H20        -3.6410   -5.8130   -2.2900 h1        1 MOL      0.017539
     48 H21        -2.6890   -3.9350   -3.5070 hc        1 MOL      0.110874
     49 H22        -3.2550   -2.7760   -2.2400 hc        1 MOL      0.110874
     50 N4         -5.2820   -4.7420   -0.4510 n         1 MOL     -0.364487
     51 C17        -6.0410   -4.3560    0.7220 c3        1 MOL     -0.219421
     52 C18        -6.1190   -2.7660    0.8720 c         1 MOL      0.679337
     53 O9         -6.1520   -1.9730   -0.0860 o         1 MOL     -0.526306
     54 H23        -5.8270   -4.9040   -1.2930 hn        1 MOL      0.297536
     55 H24        -5.5930   -4.8510    1.5820 h1        1 MOL      0.102642
     56 H25        -7.0500   -4.6960    0.4720 h1        1 MOL      0.102642
     57 N5         -6.1330   -2.2760    2.1120 n         1 MOL     -0.708347
     58 C19        -6.4360   -0.8920    2.3680 c3        1 MOL      0.535950
     59 C20        -7.8750   -0.6160    2.7980 c         1 MOL      0.402671
     60 O10        -8.5680   -1.4940    3.3940 o         1 MOL     -0.581746
     61 C21        -5.4970   -0.3350    3.4430 c3        1 MOL     -0.243257
     62 C22        -5.2270   -1.2630    4.6580 c         1 MOL      0.730820
     63 O11        -5.4130   -2.5320    4.6320 o         1 MOL     -0.728161
     64 O12        -4.8390   -0.7240    5.7270 o         1 MOL     -0.728161
     65 H26        -6.2510   -2.8860    2.9150 hn        1 MOL      0.329303
     66 H27        -6.2040   -0.3000    1.4830 h1        1 MOL     -0.002703
     67 H28        -5.9480    0.5750    3.8460 hc        1 MOL      0.007996
     68 H29        -4.5420   -0.0710    2.9770 hc        1 MOL      0.007996
     69 N6         -8.4980    0.5100    2.6570 n         1 MOL     -0.421985
     70 C23        -8.0120    1.6370    1.8810 c3        1 MOL     -0.011989
     71 C24        -8.0970    1.4270    0.3880 c         1 MOL      0.473791
     72 O13        -8.7600    0.5430   -0.1140 o         1 MOL     -0.503043
     73 H30        -9.4370    0.4360    3.0460 hn        1 MOL      0.284743
     74 H31        -6.9610    1.7990    2.1150 h1        1 MOL      0.057591
     75 H32        -8.6100    2.5100    2.1430 h1        1 MOL      0.057591
     76 N7         -7.4360    2.2730   -0.4320 n         1 MOL     -0.381236
     77 C25        -6.3660    3.2300   -0.2910 c3        1 MOL      0.032224
     78 C26        -4.9950    2.5440   -0.0440 c         1 MOL      0.513034
     79 O14        -4.9600    1.6330    0.8010 o         1 MOL     -0.489589
     80 C27        -6.7480    4.4820    0.5470 c3        1 MOL     -0.160769
     81 C28        -7.8550    5.3490   -0.1050 c3        1 MOL     -0.202911
     82 C29        -7.4280    6.2360   -1.3180 c         1 MOL      0.647101
     83 N8         -8.3520    6.5200   -2.2250 n         1 MOL     -0.809592
     84 O15        -6.3240    6.7200   -1.4070 o         1 MOL     -0.527550
     85 H33        -7.6750    2.0810   -1.3970 hn        1 MOL      0.264019
     86 H34        -6.3200    3.6030   -1.3060 h1        1 MOL      0.053926
     87 H35        -5.8510    5.0950    0.6610 hc        1 MOL      0.082274
     88 H36        -7.0760    4.0080    1.4760 hc        1 MOL      0.082274
     89 H37        -8.2850    5.9610    0.6960 hc        1 MOL      0.061621
     90 H38        -8.6300    4.6330   -0.3950 hc        1 MOL      0.061621
     91 H39        -9.2270    6.0440   -2.1060 hn        1 MOL      0.369318
     92 H40        -8.0460    6.9040   -3.1150 hn        1 MOL      0.369318
     93 N9         -3.9830    2.9570   -0.7450 n         1 MOL     -0.377642
     94 C30        -2.5760    2.6850   -0.6350 c3        1 MOL      0.034233
     95 C31        -1.8720    2.3410   -2.0060 c         1 MOL      0.615687
     96 O16        -2.1570    2.9790   -3.0380 o         1 MOL     -0.543415
     97 C32        -1.8470    3.9110   -0.0020 c3        1 MOL      0.151483
     98 C33        -2.1970    3.9940    1.4410 c3        1 MOL     -0.256655
     99 C34        -2.1820    5.2740   -0.5640 c3        1 MOL     -0.256655
    100 H41        -4.1510    3.5940   -1.5110 hn        1 MOL      0.234716
    101 H42        -2.4570    1.8120   -0.0050 h1        1 MOL      0.053163
    102 H43        -0.7940    3.8210   -0.2430 hc        1 MOL      0.025645
    103 H44        -3.2890    4.1050    1.4450 hc        1 MOL      0.061699
    104 H45        -1.7860    3.1650    2.0150 hc        1 MOL      0.061699
    105 H46        -1.8030    4.8860    1.9200 hc        1 MOL      0.061699
    106 H47        -3.1740    5.5990   -0.2370 hc        1 MOL      0.061699
    107 H48        -1.4600    6.0170   -0.2300 hc        1 MOL      0.061699
    108 H49        -2.1620    5.1520   -1.6490 hc        1 MOL      0.061699
    109 N10        -0.8310    1.4710   -1.9710 n         1 MOL     -0.554560
    110 C35        -0.3990    0.6500   -3.0530 c3        1 MOL      0.207638
    111 C36         1.0720    0.7950   -3.4970 c         1 MOL      0.428304
    112 O17         1.4800    0.0380   -4.3640 o         1 MOL     -0.550073
    113 C37        -0.7170   -0.7920   -2.7210 c3        1 MOL     -0.167373
    114 C38         0.0700   -1.3730   -1.5440 c         1 MOL      0.609105
    115 N11        -0.6330   -1.5240   -0.4410 n         1 MOL     -0.609942
    116 O18         1.2280   -1.6860   -1.5390 o         1 MOL     -0.559950
    117 H50        -0.5230    1.1950   -1.0550 hn        1 MOL      0.264114
    118 H51        -0.8800    0.8240   -4.0040 h1        1 MOL      0.084367
    119 H52        -0.5940   -1.4650   -3.5670 hc        1 MOL      0.054979
    120 H53        -1.8040   -0.8110   -2.6100 hc        1 MOL      0.054979
    121 H54        -1.6320   -1.3920   -0.3710 hn        1 MOL      0.320873
    122 H55        -0.0550   -1.3780    0.3770 hn        1 MOL      0.320873
    123 N12         1.8730    1.6430   -2.9210 n         1 MOL     -0.318100
    124 C39         3.2890    2.0210   -3.1180 c3        1 MOL      0.106306
    125 C40         3.9810    2.3170   -1.7380 c         1 MOL      0.435517
    126 O19         3.3080    2.6470   -0.7190 o         1 MOL     -0.415518
    127 C41         3.1170    3.3060   -3.9220 c3        1 MOL     -0.146432
    128 C42         2.4370    4.4960   -3.2860 ca        1 MOL     -0.000266
    129 C43         3.1810    5.4490   -2.4960 ca        1 MOL     -0.095660
    130 C44         1.0740    4.6990   -3.4770 ca        1 MOL     -0.095660
    131 C45         2.4870    6.5140   -1.8660 ca        1 MOL     -0.317769
    132 C46         0.4000    5.7820   -2.8350 ca        1 MOL     -0.317769
    133 C47         1.0770    6.6680   -1.9990 ca        1 MOL      0.371281
    134 O20         0.4520    7.6890   -1.3960 oh        1 MOL     -0.457585
    135 H56         1.3670    2.1330   -2.1980 hn        1 MOL      0.178342
    136 H57         3.8940    1.2380   -3.5770 h1        1 MOL      0.091470
    137 H58         2.5990    3.0330   -4.8440 hc        1 MOL      0.051457
    138 H59         4.1200    3.5740   -4.2350 hc        1 MOL      0.051457
    139 H60         4.2300    5.2440   -2.3090 ha        1 MOL      0.119246
    140 H61         0.5440    4.0810   -4.1910 ha        1 MOL      0.119246
    141 H62         3.0280    7.2650   -1.3210 ha        1 MOL      0.179254
    142 H63        -0.6550    5.8330   -3.0400 ha        1 MOL      0.179254
    143 H64        -0.3530    7.7300   -1.9200 ho        1 MOL      0.314930
    144 N13         5.3600    2.2290   -1.7280 n         1 MOL     -0.459822
    145 C48         6.1850    2.4560   -0.4890 c3        1 MOL      0.143845
    146 C49         7.1720    1.3240   -0.2780 c         1 MOL      0.430276
    147 O21         8.3710    1.3890   -0.5630 o         1 MOL     -0.559166
    148 C50         6.9550    3.8380   -0.6980 c3        1 MOL     -0.142964
    149 C51         7.8270    4.3350    0.4560 c3        1 MOL     -0.122596
    150 C52         6.9300    4.7670    1.6640 c         1 MOL      0.677565
    151 O22         5.8200    5.4070    1.4590 o         1 MOL     -0.729451
    152 O23         7.3020    4.5120    2.8350 o         1 MOL     -0.729451
    153 H65         5.7000    1.8250   -2.5820 hn        1 MOL      0.280555
    154 H66         5.5200    2.4900    0.3740 h1        1 MOL      0.044233
    155 H67         6.2230    4.6090   -0.9160 hc        1 MOL      0.041246
    156 H68         7.4890    3.7230   -1.6390 hc        1 MOL      0.041246
    157 H69         8.3600    5.2050    0.0960 hc        1 MOL      0.024675
    158 H70         8.5670    3.5990    0.7780 hc        1 MOL      0.024675
    159 N14         6.6550    0.2180    0.2030 n         1 MOL     -0.051649
    160 C53         7.3650   -1.1270    0.2790 c3        1 MOL     -0.203180
    161 C54         7.3260   -1.9030   -1.0570 c         1 MOL      0.414211
    162 O24         8.0390   -2.9030   -1.2070 o         1 MOL     -0.531719
    163 C55         6.7650   -1.8390    1.5120 c3        1 MOL      0.077334
    164 C56         6.9780   -1.1380    2.9090 c3        1 MOL     -0.095573
    165 C57         5.9130   -1.4360    3.9420 c         1 MOL      0.669359
    166 O25         5.0080   -0.6460    4.1610 o         1 MOL     -0.720329
    167 O26         6.0130   -2.4750    4.6160 o         1 MOL     -0.720329
    168 H71         5.6710    0.2660    0.3950 hn        1 MOL      0.076063
    169 H72         8.4070   -0.9760    0.5840 h1        1 MOL      0.119735
    170 H73         7.1790   -2.8430    1.6160 hc        1 MOL      0.059086
    171 H74         5.6920   -1.8580    1.3750 hc        1 MOL      0.059086
    172 H75         6.9950   -0.0540    2.7720 hc        1 MOL     -0.011205
    173 H76         7.9670   -1.4210    3.2710 hc        1 MOL     -0.011205
    174 N15         6.5450   -1.3510   -1.9500 n         1 MOL     -0.063180
    175 C58         6.4490   -1.6830   -3.3610 c3        1 MOL     -0.259573
    176 H77         7.4480   -1.8470   -3.7650 h1        1 MOL      0.099263
    177 H78         5.8560   -2.5890   -3.4820 h1        1 MOL      0.099263
    178 H79         5.9720   -0.8620   -3.8970 h1        1 MOL      0.099263
    179 H80         6.0560   -0.5240   -1.6330 hn        1 MOL      0.108664
    180 Ca1         2.5770    0.2540    3.7090 Ca        1 MOL      1.729461
    181 O27         1.6170    2.9370    2.3440 oh        1 MOL     -0.805330
    182 H81         1.1700    3.4950    2.9810 ho        1 MOL      0.401388
    183 H82         2.2350    3.5250    1.9030 ho        1 MOL      0.401388
    184 O28         4.2400    2.1870    3.2690 oh        1 MOL     -0.805330
    185 H83         5.0420    1.9850    3.7520 ho        1 MOL      0.401388
    186 H84         4.1300    3.1360    3.3640 ho        1 MOL      0.401388
    187 O29         0.2960    1.3960    4.2140 oh        1 MOL     -0.805330
    188 H85        -0.0810    2.2660    4.3790 ho        1 MOL      0.401388
    189 H86        -0.3420    0.9550    3.6540 ho        1 MOL      0.401388
    190 O30         3.4920    0.3890    1.1210 oh        1 MOL     -0.805330
    191 H87         3.2980    1.2370    0.7130 ho        1 MOL      0.401388
    192 H88         3.5100   -0.2330    0.3830 ho        1 MOL      0.401388
    193 O31         2.8820    1.5920    5.9360 oh        1 MOL     -0.805330
    194 H89         3.2600    2.4450    6.1180 ho        1 MOL      0.401388
    195 H90         2.5370    1.2950    6.7810 ho        1 MOL      0.401388
    196 O32         1.5920   -1.0970    5.8650 oh        1 MOL     -0.805330
    197 H91         2.1790   -1.6960    6.3320 ho        1 MOL      0.401388
    198 H92         0.7590   -1.5680    5.8000 ho        1 MOL      0.401388
@<TRIPOS>BOND
     1    1    2 1   
     2    1    4 1   
     3    1    5 1   
     4    1    6 1   
     5    2    3 2   
     6    2    7 1   
     7    7    8 1   
     8    7   15 1   
     9    8    9 1   
    10    8   11 1   
    11    8   16 1   
    12    9   10 2   
    13    9   19 1   
    14   11   12 1   
    15   11   17 1   
    16   11   18 1   
    17   12   13 1   
    18   12   14 1   
    19   19   20 1   
    20   19   27 1   
    21   20   21 1   
    22   20   23 1   
    23   20   28 1   
    24   21   22 2   
    25   21   38 1   
    26   23   24 1   
    27   23   25 1   
    28   23   29 1   
    29   24   26 1   
    30   24   30 1   
    31   24   31 1   
    32   25   32 1   
    33   25   33 1   
    34   25   34 1   
    35   26   35 1   
    36   26   36 1   
    37   26   37 1   
    38   38   39 1   
    39   38   46 1   
    40   39   40 1   
    41   39   42 1   
    42   39   47 1   
    43   40   41 2   
    44   40   50 1   
    45   42   43 1   
    46   42   48 1   
    47   42   49 1   
    48   43   44 1   
    49   43   45 1   
    50   50   51 1   
    51   50   54 1   
    52   51   52 1   
    53   51   55 1   
    54   51   56 1   
    55   52   53 2   
    56   52   57 1   
    57   57   58 1   
    58   57   65 1   
    59   58   59 1   
    60   58   61 1   
    61   58   66 1   
    62   59   60 2   
    63   59   69 1   
    64   61   62 1   
    65   61   67 1   
    66   61   68 1   
    67   62   63 1   
    68   62   64 1   
    69   69   70 1   
    70   69   73 1   
    71   70   71 1   
    72   70   74 1   
    73   70   75 1   
    74   71   72 2   
    75   71   76 1   
    76   76   77 1   
    77   76   85 1   
    78   77   78 1   
    79   77   80 1   
    80   77   86 1   
    81   78   79 2   
    82   78   93 1   
    83   80   81 1   
    84   80   87 1   
    85   80   88 1   
    86   81   82 1   
    87   81   89 1   
    88   81   90 1   
    89   82   83 1   
    90   82   84 2   
    91   83   91 1   
    92   83   92 1   
    93   93   94 1   
    94   93  100 1   
    95   94   95 1   
    96   94   97 1   
    97   94  101 1   
    98   95   96 2   
    99   95  109 1   
   100   97   98 1   
   101   97   99 1   
   102   97  102 1   
   103   98  103 1   
   104   98  104 1   
   105   98  105 1   
   106   99  106 1   
   107   99  107 1   
   108   99  108 1   
   109  109  110 1   
   110  109  117 1   
   111  110  111 1   
   112  110  113 1   
   113  110  118 1   
   114  111  112 2   
   115  111  123 1   
   116  113  114 1   
   117  113  119 1   
   118  113  120 1   
   119  114  115 1   
   120  114  116 2   
   121  115  121 1   
   122  115  122 1   
   123  123  124 1   
   124  123  135 1   
   125  124  125 1   
   126  124  127 1   
   127  124  136 1   
   128  125  126 2   
   129  125  144 1   
   130  127  128 1   
   131  127  137 1   
   132  127  138 1   
   133  128  129 ar  
   134  128  130 ar  
   135  129  131 ar  
   136  129  139 1   
   137  130  132 ar  
   138  130  140 1   
   139  131  133 ar  
   140  131  141 1   
   141  132  133 ar  
   142  132  142 1   
   143  133  134 1   
   144  134  143 1   
   145  144  145 1   
   146  144  153 1   
   147  145  146 1   
   148  145  148 1   
   149  145  154 1   
   150  146  147 2   
   151  146  159 1   
   152  148  149 1   
   153  148  155 1   
   154  148  156 1   
   155  149  150 1   
   156  149  157 1   
   157  149  158 1   
   158  150  151 1   
   159  150  152 1   
   160  159  160 1   
   161  159  168 1   
   162  160  161 1   
   163  160  163 1   
   164  160  169 1   
   165  161  162 2   
   166  161  174 1   
   167  163  164 1   
   168  163  170 1   
   169  163  171 1   
   170  164  165 1   
   171  164  172 1   
   172  164  173 1   
   173  165  166 1   
   174  165  167 1   
   175  174  175 1   
   176  174  179 1   
   177  175  176 1   
   178  175  177 1   
   179  175  178 1   
   180  181  182 1   
   181  181  183 1   
   182  184  185 1   
   183  184  186 1   
   184  187  188 1   
   185  187  189 1   
   186  190  191 1   
   187  190  192 1   
   188  193  194 1   
   189  193  195 1   
   190  196  197 1   
   191  196  198 1   
@<TRIPOS>SUBSTRUCTURE
     1 MOL         1 TEMP              0 ****  ****    0 ROOT
