@<TRIPOS>MOLECULE
MOL
  191   184     1     0     0
SMALL
resp


@<TRIPOS>ATOM
      1 C1         -6.0500    3.7380   -1.2060 c3        1 MOL     -0.132518
      2 C2         -6.5550    2.7590   -0.1530 c         1 MOL      0.716675
      3 O1         -5.8010    1.8850    0.3540 o         1 MOL     -0.552149
      4 H1         -6.5930    3.5790   -2.1390 hc        1 MOL      0.028204
      5 H2         -6.2130    4.7590   -0.8620 hc        1 MOL      0.028204
      6 H3         -4.9850    3.5740   -1.3740 hc        1 MOL      0.028204
      7 N1         -7.8280    2.7780    0.2130 n         1 MOL     -0.566753
      8 C3         -8.5610    1.9880    1.2270 c3        1 MOL      0.169816
      9 C4         -8.6190    0.4890    0.7650 c         1 MOL      0.412149
     10 O2         -8.6840   -0.4640    1.6450 o         1 MOL     -0.489615
     11 C5         -8.0930    2.2310    2.6880 c3        1 MOL     -0.308265
     12 C6         -8.2600    3.7000    3.2570 c         1 MOL      0.740703
     13 O3         -7.8660    3.8940    4.4300 o         1 MOL     -0.671197
     14 O4         -8.7970    4.6000    2.6120 o         1 MOL     -0.671197
     15 H4         -8.2690    3.5960   -0.1720 hn        1 MOL      0.273453
     16 H5         -9.5970    2.2910    1.1040 h1        1 MOL      0.056168
     17 H6         -7.0660    1.8650    2.7960 hc        1 MOL      0.096987
     18 H7         -8.7300    1.5920    3.2920 hc        1 MOL      0.096987
     19 N2         -8.5430    0.1900   -0.5430 n         1 MOL     -0.458164
     20 C7         -8.5340   -1.1240   -1.2210 c3        1 MOL      0.071290
     21 C8         -7.2020   -1.8110   -1.2250 c         1 MOL      0.594031
     22 O5         -7.2390   -3.0070   -1.3130 o         1 MOL     -0.572325
     23 C9         -9.0370   -0.9120   -2.7320 c3        1 MOL     -0.205443
     24 C10       -10.5200   -0.5150   -2.9550 c3        1 MOL      0.209694
     25 C11       -10.8490   -0.6210   -4.4260 c3        1 MOL     -0.095042
     26 C12       -12.3680   -0.4110   -4.5610 c3        1 MOL      0.020413
     27 N3        -13.1790   -1.5200   -4.0090 n4        1 MOL     -0.324359
     28 H8         -8.2560    0.9670   -1.1190 hn        1 MOL      0.251005
     29 H9         -9.2430   -1.7610   -0.6960 h1        1 MOL      0.106067
     30 H10        -9.0110   -1.9190   -3.1410 hc        1 MOL      0.053607
     31 H11        -8.3270   -0.2750   -3.2570 hc        1 MOL      0.053607
     32 H12       -10.5870    0.5190   -2.6130 hc        1 MOL     -0.028942
     33 H13       -11.1690   -1.0900   -2.2950 hc        1 MOL     -0.028942
     34 H14       -10.5400   -1.5220   -4.9550 hc        1 MOL      0.055050
     35 H15       -10.2410    0.2060   -4.7830 hc        1 MOL      0.055050
     36 H16       -12.5930   -0.2250   -5.6140 hx        1 MOL      0.068744
     37 H17       -12.6350    0.5450   -4.1320 hx        1 MOL      0.068744
     38 H18       -13.9600   -1.0950   -3.5260 hn        1 MOL      0.252578
     39 H19       -13.4830   -2.0860   -4.7840 hn        1 MOL      0.252578
     40 H20       -12.5860   -2.0760   -3.4070 hn        1 MOL      0.252578
     41 N4         -6.0720   -1.1080   -1.1910 n         1 MOL     -0.394874
     42 C13        -4.7650   -1.6460   -1.1500 c3        1 MOL     -0.021451
     43 C14        -4.6680   -2.5760    0.0550 c         1 MOL      0.770215
     44 O6         -5.2570   -2.3920    1.0820 o         1 MOL     -0.493140
     45 C15        -3.6950   -0.6010   -1.1500 c3        1 MOL     -0.141704
     46 C16        -2.3500   -1.2500   -1.1410 c         1 MOL      0.741893
     47 O7         -1.8770   -1.6740   -2.2220 o         1 MOL     -0.739132
     48 O8         -1.7610   -1.4330   -0.0370 o         1 MOL     -0.739132
     49 H21        -6.1980   -0.1190   -1.0380 hn        1 MOL      0.220384
     50 H22        -4.6050   -2.3190   -1.9990 h1        1 MOL      0.025944
     51 H23        -3.8420   -0.1260   -0.1780 hc        1 MOL      0.017972
     52 H24        -3.8590    0.1480   -1.9310 hc        1 MOL      0.017972
     53 N5         -4.0810   -3.7420   -0.0670 n         1 MOL     -0.495335
     54 C17        -3.9400   -4.7740    0.9490 c3        1 MOL     -0.106085
     55 C18        -3.0950   -4.5150    2.2050 c         1 MOL      0.433951
     56 O9         -3.4100   -4.9950    3.3040 o         1 MOL     -0.497917
     57 H25        -3.5890   -3.8930   -0.9220 hn        1 MOL      0.287598
     58 H26        -3.4520   -5.5810    0.4040 h1        1 MOL      0.112047
     59 H27        -4.9400   -5.1200    1.2460 h1        1 MOL      0.112047
     60 N6         -2.0150   -3.6920    2.0850 n         1 MOL     -0.198923
     61 C19        -1.1000   -3.2200    3.1110 c3        1 MOL     -0.217582
     62 C20        -1.2820   -1.7250    3.4180 c         1 MOL      0.523777
     63 O10        -0.3960   -1.1120    4.0970 o         1 MOL     -0.538479
     64 C21         0.3160   -3.5210    2.6270 c3        1 MOL     -0.113594
     65 C22         0.6170   -4.9800    2.3290 c         1 MOL      0.641329
     66 N7          0.3970   -5.8420    3.3040 n         1 MOL     -0.749041
     67 O11         1.0750   -5.3120    1.2690 o         1 MOL     -0.584341
     68 H28        -1.9700   -3.1380    1.2380 hn        1 MOL      0.109401
     69 H29        -1.3190   -3.7140    4.0530 h1        1 MOL      0.154978
     70 H30         1.0360   -3.0730    3.3160 hc        1 MOL      0.068819
     71 H31         0.4470   -2.9440    1.7140 hc        1 MOL      0.068819
     72 H32         0.1080   -5.5450    4.2260 hn        1 MOL      0.375430
     73 H33         0.6310   -6.7850    3.0680 hn        1 MOL      0.375430
     74 N8         -2.3710   -1.1500    2.9770 n         1 MOL     -0.199540
     75 C23        -2.7040    0.2280    3.3950 c3        1 MOL     -0.079447
     76 C24        -2.3160    1.4060    2.5240 c         1 MOL      0.668100
     77 O12        -2.6160    2.5560    2.8380 o         1 MOL     -0.547805
     78 H34        -2.9680   -1.6500    2.3250 hn        1 MOL      0.232351
     79 H35        -2.2710    0.3800    4.3870 h1        1 MOL      0.091661
     80 H36        -3.7770    0.3850    3.5290 h1        1 MOL      0.091661
     81 N9         -1.7260    1.2320    1.3640 n         1 MOL     -0.616422
     82 C25        -0.9330    2.2520    0.5690 c3        1 MOL      0.057571
     83 C26         0.3520    1.6920    0.0340 c         1 MOL      0.602004
     84 O13         0.4710    0.5870   -0.4100 o         1 MOL     -0.637780
     85 C27        -1.7480    2.8030   -0.5780 c3        1 MOL     -0.241509
     86 C28        -1.0600    3.9950   -1.2400 ca        1 MOL      0.338740
     87 C29        -0.7550    5.1500   -0.4630 ca        1 MOL     -0.499812
     88 C30        -0.6220    3.8220   -2.5890 ca        1 MOL     -0.499812
     89 C31        -0.0620    6.2820   -1.0870 ca        1 MOL      0.031025
     90 C32         0.0550    4.9320   -3.1270 ca        1 MOL      0.031025
     91 C33         0.2800    6.1320   -2.4580 ca        1 MOL      0.109359
     92 O14         0.8600    7.1240   -3.1380 oh        1 MOL     -0.401721
     93 H37        -1.6130    0.3230    0.9460 hn        1 MOL      0.364007
     94 H38        -0.7280    3.1020    1.2130 h1        1 MOL      0.101050
     95 H39        -2.6390    3.2680   -0.1550 hc        1 MOL      0.119303
     96 H40        -1.9950    1.9500   -1.2160 hc        1 MOL      0.119303
     97 H41        -1.1020    5.2970    0.5510 ha        1 MOL      0.214003
     98 H42        -0.7310    2.9360   -3.1920 ha        1 MOL      0.214003
     99 H43         0.0110    7.2260   -0.5560 ha        1 MOL      0.106193
    100 H44         0.2490    4.8580   -4.1890 ha        1 MOL      0.106193
    101 H45         0.9980    6.8420   -4.0460 ho        1 MOL      0.324725
    102 N10         1.3990    2.4920    0.1470 n         1 MOL     -0.499841
    103 C34         2.8110    2.0360   -0.1110 c3        1 MOL     -0.035108
    104 C35         3.3620    1.0400    0.9000 c         1 MOL      0.255615
    105 O15         4.2090    0.2880    0.5460 o         1 MOL     -0.502294
    106 C36         3.6840    3.3330   -0.2620 c3        1 MOL      0.059432
    107 C37         3.3410    4.1610   -1.5030 c3        1 MOL      0.195071
    108 C38         5.2140    2.9770   -0.3190 c3        1 MOL     -0.383853
    109 C39         4.1260    5.4830   -1.6920 c3        1 MOL     -0.168203
    110 H46         1.1590    3.4410    0.3940 hn        1 MOL      0.337094
    111 H47         2.7580    1.5870   -1.1040 h1        1 MOL      0.147315
    112 H48         3.5080    3.9550    0.6170 hc        1 MOL      0.002938
    113 H49         2.2720    4.3830   -1.5060 hc        1 MOL     -0.076508
    114 H50         3.4570    3.4900   -2.3600 hc        1 MOL     -0.076508
    115 H51         5.4830    2.3870   -1.2000 hc        1 MOL      0.123327
    116 H52         5.7650    3.9180   -0.3820 hc        1 MOL      0.123327
    117 H53         5.4790    2.3940    0.5680 hc        1 MOL      0.123327
    118 H54         5.1900    5.4040   -1.9410 hc        1 MOL      0.046078
    119 H55         3.6980    5.9550   -2.5710 hc        1 MOL      0.046078
    120 H56         4.0110    6.1770   -0.8580 hc        1 MOL      0.046078
    121 N11         2.8820    1.1510    2.0960 n         1 MOL      0.017928
    122 C40         3.0970    0.2880    3.2840 c3        1 MOL     -0.185786
    123 C41         4.5260    0.2430    3.8280 c         1 MOL      0.433042
    124 O16         4.8670   -0.7460    4.4940 o         1 MOL     -0.490363
    125 C42         2.1440    0.8940    4.3390 c3        1 MOL      0.231831
    126 O17         0.7540    1.1570    3.9000 oh        1 MOL     -0.649248
    127 H57         2.0970    1.7950    2.0810 hn        1 MOL      0.134127
    128 H58         2.7800   -0.7350    3.0900 h1        1 MOL      0.102631
    129 H59         2.6800    1.7970    4.6380 h1        1 MOL      0.040585
    130 H60         2.0640    0.3090    5.2490 h1        1 MOL      0.040585
    131 H61         0.2790    0.3230    3.9890 ho        1 MOL      0.415438
    132 N12         5.3610    1.2270    3.4540 n         1 MOL     -0.390523
    133 C43         6.8240    1.3400    3.6320 c3        1 MOL      0.329727
    134 C44         7.5870    0.3820    2.6840 c         1 MOL      0.389827
    135 O18         8.8410    0.4080    2.7930 o         1 MOL     -0.548120
    136 C45         7.2390    1.1840    5.0320 c3        1 MOL     -0.571248
    137 H62         4.9430    2.0960    3.1530 hn        1 MOL      0.226812
    138 H63         7.2010    2.2490    3.1590 h1        1 MOL      0.027660
    139 H64         6.7330    0.4150    5.6140 hc        1 MOL      0.158454
    140 H65         8.3120    0.9980    5.0160 hc        1 MOL      0.158454
    141 H66         7.1150    2.1660    5.5010 hc        1 MOL      0.158454
    142 N13         6.8710   -0.4130    1.9350 n         1 MOL     -0.373605
    143 C46         7.5600   -1.3060    1.0070 c3        1 MOL      0.278632
    144 C47         8.1080   -0.6290   -0.2930 c         1 MOL      0.524479
    145 O19         7.5500    0.2360   -0.8560 o         1 MOL     -0.467084
    146 C48         6.5880   -2.4760    0.6330 c3        1 MOL     -0.290518
    147 H67         5.8710   -0.2690    1.8630 hn        1 MOL      0.239619
    148 H68         8.4280   -1.7520    1.4920 h1        1 MOL      0.033685
    149 H69         5.7100   -1.9790    0.2220 hc        1 MOL      0.093404
    150 H70         7.0700   -3.1870   -0.0360 hc        1 MOL      0.093404
    151 H71         6.4010   -3.0530    1.5320 hc        1 MOL      0.093404
    152 N14         9.2740   -1.0880   -0.7270 n         1 MOL     -0.671664
    153 C49         9.9710   -0.6080   -1.9540 c3        1 MOL      0.241867
    154 C50        10.2880    0.9390   -1.9950 c         1 MOL      0.325815
    155 O20        10.0520    1.5900   -3.0060 o         1 MOL     -0.484684
    156 C51         9.2820   -1.1050   -3.2370 c3        1 MOL     -0.072747
    157 C52         9.0390   -2.6500   -3.2840 c3        1 MOL      0.035936
    158 C53         8.4670   -2.9430   -4.6470 c         1 MOL      0.597488
    159 O21         7.4360   -3.6560   -4.6550 o         1 MOL     -0.655500
    160 O22         8.9950   -2.5000   -5.7020 o         1 MOL     -0.655500
    161 H72         9.6740   -1.7940   -0.1110 hn        1 MOL      0.297855
    162 H73        10.9970   -0.9810   -1.9700 h1        1 MOL      0.045069
    163 H74         9.9440   -0.8280   -4.0540 hc        1 MOL      0.056852
    164 H75         8.2610   -0.7390   -3.2790 hc        1 MOL      0.056852
    165 H76         8.3900   -3.0420   -2.5110 hc        1 MOL     -0.049042
    166 H77        10.0810   -2.9750   -3.2460 hc        1 MOL     -0.049042
    167 N15        10.7540    1.6110   -0.8870 n         1 MOL     -0.245207
    168 C54        11.0370    3.0390   -0.8590 c3        1 MOL     -0.093080
    169 H78        11.8990    3.2260   -0.2190 h1        1 MOL      0.068147
    170 H79        11.2530    3.3870   -1.8690 h1        1 MOL      0.068147
    171 H80        10.1720    3.5740   -0.4670 h1        1 MOL      0.068147
    172 H81        11.0440    1.0330   -0.1160 hn        1 MOL      0.216246
    173 Ca1         0.6660   -1.8860   -1.6360 Ca        1 MOL      1.794299
    174 O23        -0.1940   -4.4430   -1.0490 oh        1 MOL     -0.830840
    175 H82         0.2010   -4.9560   -0.3480 ho        1 MOL      0.411363
    176 H83        -0.7220   -5.0760   -1.5480 ho        1 MOL      0.411363
    177 O24         0.1610   -3.3780   -3.8590 oh        1 MOL     -0.830840
    178 H84         0.7790   -3.6890   -4.5100 ho        1 MOL      0.411363
    179 H85        -0.7010   -3.4840   -4.2720 ho        1 MOL      0.411363
    180 O25         2.3900   -1.7280    0.3580 oh        1 MOL     -0.830840
    181 H86         2.7770   -2.2160    1.0850 ho        1 MOL      0.411363
    182 H87         3.0240   -1.0460    0.1650 ho        1 MOL      0.411363
    183 O26         0.1050   -0.0270   -3.4340 oh        1 MOL     -0.830840
    184 H88        -0.8220    0.1330   -3.6110 ho        1 MOL      0.411363
    185 H89         0.5520    0.7440   -3.7860 ho        1 MOL      0.411363
    186 O27         2.8690   -0.8460   -2.6670 oh        1 MOL     -0.830840
    187 H90         3.8240   -0.8280   -2.6420 ho        1 MOL      0.411363
    188 H91         2.6220   -0.1030   -3.2170 ho        1 MOL      0.411363
    189 O28         2.6320   -3.8320   -2.0380 oh        1 MOL     -0.830840
    190 H92         3.3190   -3.8100   -2.7080 ho        1 MOL      0.411363
    191 H93         2.0050   -4.4780   -2.3650 ho        1 MOL      0.411363
@<TRIPOS>BOND
     1    1    2 1   
     2    1    4 1   
     3    1    5 1   
     4    1    6 1   
     5    2    3 2   
     6    2    7 1   
     7    7    8 1   
     8    7   15 1   
     9    8    9 1   
    10    8   11 1   
    11    8   16 1   
    12    9   10 2   
    13    9   19 1   
    14   11   12 1   
    15   11   17 1   
    16   11   18 1   
    17   12   13 1   
    18   12   14 1   
    19   19   20 1   
    20   19   28 1   
    21   20   21 1   
    22   20   23 1   
    23   20   29 1   
    24   21   22 2   
    25   21   41 1   
    26   23   24 1   
    27   23   30 1   
    28   23   31 1   
    29   24   25 1   
    30   24   32 1   
    31   24   33 1   
    32   25   26 1   
    33   25   34 1   
    34   25   35 1   
    35   26   27 1   
    36   26   36 1   
    37   26   37 1   
    38   27   38 1   
    39   27   39 1   
    40   27   40 1   
    41   41   42 1   
    42   41   49 1   
    43   42   43 1   
    44   42   45 1   
    45   42   50 1   
    46   43   44 2   
    47   43   53 1   
    48   45   46 1   
    49   45   51 1   
    50   45   52 1   
    51   46   47 1   
    52   46   48 1   
    53   53   54 1   
    54   53   57 1   
    55   54   55 1   
    56   54   58 1   
    57   54   59 1   
    58   55   56 2   
    59   55   60 1   
    60   60   61 1   
    61   60   68 1   
    62   61   62 1   
    63   61   64 1   
    64   61   69 1   
    65   62   63 2   
    66   62   74 1   
    67   64   65 1   
    68   64   70 1   
    69   64   71 1   
    70   65   66 1   
    71   65   67 2   
    72   66   72 1   
    73   66   73 1   
    74   74   75 1   
    75   74   78 1   
    76   75   76 1   
    77   75   79 1   
    78   75   80 1   
    79   76   77 2   
    80   76   81 1   
    81   81   82 1   
    82   81   93 1   
    83   82   83 1   
    84   82   85 1   
    85   82   94 1   
    86   83   84 2   
    87   83  102 1   
    88   85   86 1   
    89   85   95 1   
    90   85   96 1   
    91   86   87 ar  
    92   86   88 ar  
    93   87   89 ar  
    94   87   97 1   
    95   88   90 ar  
    96   88   98 1   
    97   89   91 ar  
    98   89   99 1   
    99   90   91 ar  
   100   90  100 1   
   101   91   92 1   
   102   92  101 1   
   103  102  103 1   
   104  102  110 1   
   105  103  104 1   
   106  103  106 1   
   107  103  111 1   
   108  104  105 2   
   109  104  121 1   
   110  106  107 1   
   111  106  108 1   
   112  106  112 1   
   113  107  109 1   
   114  107  113 1   
   115  107  114 1   
   116  108  115 1   
   117  108  116 1   
   118  108  117 1   
   119  109  118 1   
   120  109  119 1   
   121  109  120 1   
   122  121  122 1   
   123  121  127 1   
   124  122  123 1   
   125  122  125 1   
   126  122  128 1   
   127  123  124 2   
   128  123  132 1   
   129  125  126 1   
   130  125  129 1   
   131  125  130 1   
   132  126  131 1   
   133  132  133 1   
   134  132  137 1   
   135  133  134 1   
   136  133  136 1   
   137  133  138 1   
   138  134  135 2   
   139  134  142 1   
   140  136  139 1   
   141  136  140 1   
   142  136  141 1   
   143  142  143 1   
   144  142  147 1   
   145  143  144 1   
   146  143  146 1   
   147  143  148 1   
   148  144  145 2   
   149  144  152 1   
   150  146  149 1   
   151  146  150 1   
   152  146  151 1   
   153  152  153 1   
   154  152  161 1   
   155  153  154 1   
   156  153  156 1   
   157  153  162 1   
   158  154  155 2   
   159  154  167 1   
   160  156  157 1   
   161  156  163 1   
   162  156  164 1   
   163  157  158 1   
   164  157  165 1   
   165  157  166 1   
   166  158  159 1   
   167  158  160 1   
   168  167  168 1   
   169  167  172 1   
   170  168  169 1   
   171  168  170 1   
   172  168  171 1   
   173  174  175 1   
   174  174  176 1   
   175  177  178 1   
   176  177  179 1   
   177  180  181 1   
   178  180  182 1   
   179  183  184 1   
   180  183  185 1   
   181  186  187 1   
   182  186  188 1   
   183  189  190 1   
   184  189  191 1   
@<TRIPOS>SUBSTRUCTURE
     1 MOL         1 TEMP              0 ****  ****    0 ROOT
