@<TRIPOS>MOLECULE
MOL
  192   187     1     0     0
SMALL
resp


@<TRIPOS>ATOM
      1 C1          9.5640    1.7780    1.0910 c3        1 MOL     -0.583100
      2 C2          8.3220    0.9920    0.5220 c         1 MOL      0.792251
      3 O1          7.2340    0.8130    1.0920 o         1 MOL     -0.714765
      4 H1          9.2660    2.3300    1.9830 hc        1 MOL      0.152420
      5 H2         10.3540    1.0730    1.3480 hc        1 MOL      0.152420
      6 H3          9.9290    2.4760    0.3380 hc        1 MOL      0.152420
      7 N1          8.5030    0.4320   -0.6700 n         1 MOL     -0.611457
      8 C3          7.4700   -0.1060   -1.6500 c3        1 MOL      0.061718
      9 C4          6.8550   -1.3980   -1.1670 c         1 MOL      0.382050
     10 O2          6.3860   -2.1670   -2.0160 o         1 MOL     -0.431405
     11 C5          8.1640   -0.1550   -3.0410 c3        1 MOL     -0.225348
     12 C6          9.5810   -0.8100   -3.0710 c         1 MOL      0.767216
     13 O3          9.9450   -1.5470   -2.1400 o         1 MOL     -0.681021
     14 O4         10.2860   -0.6570   -4.1020 o         1 MOL     -0.681021
     15 H4          9.4210    0.5410   -1.0830 hn        1 MOL      0.282494
     16 H5          6.7110    0.6760   -1.7060 h1        1 MOL      0.142184
     17 H6          8.1350    0.8840   -3.3630 hc        1 MOL      0.061918
     18 H7          7.4770   -0.7170   -3.6800 hc        1 MOL      0.061918
     19 N2          6.7330   -1.7290    0.1350 n         1 MOL     -0.178870
     20 C7          6.4260   -3.0700    0.6250 c3        1 MOL     -0.064020
     21 C8          4.9170   -3.4680    0.3310 c         1 MOL      0.527967
     22 O5          4.6790   -4.5730   -0.0990 o         1 MOL     -0.538691
     23 C9          6.8640   -3.1950    2.0750 c3        1 MOL     -0.045707
     24 C10         8.4140   -2.9640    2.2710 c3        1 MOL      0.029310
     25 C11         9.0430   -2.9100    3.6590 c3        1 MOL     -0.098111
     26 C12        10.5650   -2.7470    3.5640 c3        1 MOL      0.147620
     27 N3         11.1450   -2.9560    4.8790 n4        1 MOL     -0.367363
     28 H8          7.0650   -1.0820    0.8350 hn        1 MOL      0.270364
     29 H9          6.9940   -3.8080    0.0590 h1        1 MOL      0.105666
     30 H10         6.6130   -4.1290    2.5680 hc        1 MOL      0.025890
     31 H11         6.3390   -2.4670    2.7010 hc        1 MOL      0.025890
     32 H12         8.6460   -2.0050    1.8170 hc        1 MOL      0.016142
     33 H13         8.9140   -3.6820    1.6270 hc        1 MOL      0.016142
     34 H14         8.8610   -3.8830    4.1150 hc        1 MOL      0.033063
     35 H15         8.5980   -2.1570    4.3180 hc        1 MOL      0.033063
     36 H16        10.7630   -1.7720    3.1270 hx        1 MOL      0.059076
     37 H17        10.9210   -3.4500    2.8100 hx        1 MOL      0.059076
     38 H18        12.1230   -3.2170    4.7630 hn        1 MOL      0.294104
     39 H19        11.0840   -2.1980    5.5420 hn        1 MOL      0.294104
     40 H20        10.6400   -3.7530    5.2510 hn        1 MOL      0.294104
     41 N4          3.8850   -2.6520    0.5930 n         1 MOL     -0.498987
     42 C13         3.9160   -1.2220    1.1050 c3        1 MOL      0.173405
     43 C14         3.9380   -0.2580   -0.1380 c         1 MOL      0.090762
     44 O6          3.7570   -0.6960   -1.2560 o         1 MOL     -0.348888
     45 C15         2.7020   -1.0090    2.0450 c3        1 MOL     -0.368473
     46 C16         1.4650   -1.5540    1.4390 c         1 MOL      0.787297
     47 O7          0.9380   -0.9090    0.5280 o         1 MOL     -0.685743
     48 O8          0.9980   -2.5960    1.8760 o         1 MOL     -0.685743
     49 H21         2.9900   -3.0300    0.3230 hn        1 MOL      0.396639
     50 H22         4.8260   -0.9100    1.6220 h1        1 MOL      0.075096
     51 H23         2.5940    0.0360    2.3540 hc        1 MOL      0.058460
     52 H24         2.8940   -1.4950    3.0000 hc        1 MOL      0.058460
     53 N5          4.0740    1.0040    0.2070 n         1 MOL     -0.216503
     54 C17         4.1210    2.1600   -0.7240 c3        1 MOL     -0.226769
     55 C18         2.7240    2.5450   -1.2610 c         1 MOL      0.787196
     56 O9          1.7170    2.0430   -0.8110 o         1 MOL     -0.666567
     57 H25         4.3560    1.2340    1.1490 hn        1 MOL      0.306238
     58 H26         4.8170    2.0070   -1.5390 h1        1 MOL      0.101011
     59 H27         4.4860    2.9510   -0.0720 h1        1 MOL      0.101011
     60 N6          2.7880    3.5420   -2.1420 n         1 MOL     -0.702081
     61 C19         1.6670    4.1100   -2.8710 c3        1 MOL      0.577404
     62 C20         1.8540    5.6540   -3.1950 c         1 MOL      0.373037
     63 O10         2.9830    6.1510   -3.2570 o         1 MOL     -0.514632
     64 C21         1.3410    3.3930   -4.1780 c3        1 MOL     -0.304171
     65 C22         0.8360    2.0190   -3.9250 c         1 MOL      0.745449
     66 O11        -0.1130    1.8920   -3.0860 o         1 MOL     -0.690833
     67 O12         1.2660    1.0040   -4.5960 o         1 MOL     -0.690833
     68 H28         3.7200    3.8600   -2.3680 hn        1 MOL      0.317191
     69 H29         0.7310    4.0620   -2.3310 h1        1 MOL     -0.107471
     70 H30         2.2950    3.4190   -4.7210 hc        1 MOL      0.062307
     71 H31         0.5820    3.8860   -4.7830 hc        1 MOL      0.062307
     72 N7          0.8340    6.5310   -3.2420 n         1 MOL     -0.436861
     73 C23        -0.6400    6.2350   -3.1080 c3        1 MOL     -0.225504
     74 C24        -1.1320    5.8360   -1.7520 c         1 MOL      0.737065
     75 O13        -0.6370    6.2060   -0.6580 o         1 MOL     -0.562657
     76 H32         1.0510    7.5070   -3.0930 hn        1 MOL      0.334567
     77 H33        -0.8770    5.4470   -3.8240 h1        1 MOL      0.125390
     78 H34        -1.1170    7.1580   -3.4300 h1        1 MOL      0.125390
     79 N8         -2.2710    5.1780   -1.7240 n         1 MOL     -0.579771
     80 C25        -2.9700    4.8570   -0.5100 c3        1 MOL     -0.106463
     81 C26        -2.1090    3.9450    0.3270 c         1 MOL      0.800488
     82 O14        -1.5390    2.9750   -0.2190 o         1 MOL     -0.611300
     83 C27        -4.3010    4.2490   -0.8900 c3        1 MOL      0.289153
     84 C28        -5.1160    3.7320    0.3020 c3        1 MOL     -0.220976
     85 O15        -4.2410    3.3380   -2.0150 oh        1 MOL     -0.564298
     86 H35        -2.6040    4.8610   -2.6220 hn        1 MOL      0.265277
     87 H36        -3.2380    5.7650    0.0230 h1        1 MOL      0.091434
     88 H37        -4.8950    5.0590   -1.3130 h1        1 MOL      0.029559
     89 H38        -3.8190    3.8810   -2.6830 ho        1 MOL      0.401664
     90 H39        -4.7440    4.0130    1.2930 hc        1 MOL      0.058120
     91 H40        -6.1880    3.9030    0.2900 hc        1 MOL      0.058120
     92 H41        -5.0080    2.6500    0.4110 hc        1 MOL      0.058120
     93 N9         -2.1700    4.1200    1.6810 n         1 MOL     -0.603444
     94 C29        -1.4700    3.2460    2.6820 c3        1 MOL     -0.020403
     95 C30        -1.9960    1.7850    2.6390 c         1 MOL      0.778029
     96 O16        -1.6780    0.9590    1.7290 o         1 MOL     -0.694253
     97 C31         0.0530    3.3950    2.6400 c3        1 MOL     -0.111572
     98 C32         0.6200    4.8880    2.7750 c3        1 MOL     -0.068255
     99 C33         0.7010    2.4440    3.6900 c3        1 MOL     -0.340515
    100 C34         0.2730    5.7190    4.0880 c3        1 MOL     -0.265760
    101 H42        -2.7340    4.8320    2.1180 hn        1 MOL      0.322494
    102 H43        -1.7490    3.6320    3.6710 h1        1 MOL      0.110393
    103 H44         0.3990    3.0920    1.6600 hc        1 MOL      0.106726
    104 H45         0.2820    5.5460    1.9830 hc        1 MOL      0.088452
    105 H46         1.6840    4.9260    2.5650 hc        1 MOL      0.088452
    106 H47         0.4910    2.7520    4.7170 hc        1 MOL      0.113667
    107 H48         0.3590    1.4140    3.5010 hc        1 MOL      0.113667
    108 H49         1.7730    2.3110    3.5560 hc        1 MOL      0.113667
    109 H50         0.5710    5.2680    5.0320 hc        1 MOL      0.070188
    110 H51         0.8070    6.6790    4.0630 hc        1 MOL      0.070188
    111 H52        -0.8180    5.7620    4.0900 hc        1 MOL      0.070188
    112 N10        -2.7530    1.3830    3.6140 n         1 MOL     -0.545032
    113 C35        -2.8550    0.0160    4.1160 c3        1 MOL     -0.112637
    114 C36        -4.1410   -0.6410    3.7670 c         1 MOL      0.482607
    115 O17        -4.4090   -1.7400    4.2810 o         1 MOL     -0.545376
    116 C37        -2.5690   -0.1230    5.6980 c3        1 MOL      0.456773
    117 C38        -3.6100    0.5270    6.5960 c3        1 MOL     -0.231593
    118 O18        -1.3390    0.5890    5.8500 oh        1 MOL     -0.638110
    119 H53        -3.1430    2.0770    4.2320 hn        1 MOL      0.277881
    120 H54        -2.1040   -0.5190    3.5320 h1        1 MOL      0.150683
    121 H55        -2.4710   -1.1870    5.8830 h1        1 MOL      0.000777
    122 H56        -0.6280    0.0540    5.4970 ho        1 MOL      0.383605
    123 H57        -3.9770    1.4620    6.1710 hc        1 MOL      0.066946
    124 H58        -4.3710   -0.1800    6.9200 hc        1 MOL      0.066946
    125 H59        -3.0890    0.7840    7.5070 hc        1 MOL      0.066946
    126 N11        -4.9850   -0.1240    2.8680 n         1 MOL     -0.163002
    127 C39        -6.2360   -0.7540    2.3920 c3        1 MOL     -0.242753
    128 C40        -6.0800   -1.3520    0.9830 c         1 MOL      0.540359
    129 O19        -5.6640   -0.5540    0.1150 o         1 MOL     -0.431811
    130 C41        -7.4150    0.2370    2.5120 c3        1 MOL      0.222833
    131 C42        -7.8140    0.3150    4.0020 c3        1 MOL     -0.323443
    132 O20        -7.1410    1.5480    2.0420 oh        1 MOL     -0.541350
    133 H60        -4.7010    0.6860    2.3290 hn        1 MOL      0.179691
    134 H61        -6.4620   -1.5900    3.0720 h1        1 MOL      0.122256
    135 H62        -8.3540   -0.1300    2.0870 h1        1 MOL      0.111673
    136 H63        -6.6570    1.8010    2.8290 ho        1 MOL      0.367210
    137 H64        -8.8130    0.7600    3.9950 hc        1 MOL      0.082648
    138 H65        -7.8550   -0.7320    4.3020 hc        1 MOL      0.082648
    139 H66        -7.0630    0.8160    4.6020 hc        1 MOL      0.082648
    140 N12        -6.4670   -2.5620    0.6190 n         1 MOL     -0.437564
    141 C43        -6.3820   -3.1200   -0.7760 c3        1 MOL      0.084810
    142 C44        -5.0390   -3.0050   -1.4850 c         1 MOL      0.665059
    143 O21        -4.8950   -2.1590   -2.4060 o         1 MOL     -0.517455
    144 C45        -7.4250   -2.4090   -1.6650 c3        1 MOL     -0.524119
    145 C46        -8.9010   -2.5140   -1.1700 c3        1 MOL      0.299053
    146 C47        -9.8720   -1.7490   -2.0860 c3        1 MOL     -0.039791
    147 C48       -11.2190   -1.5990   -1.3710 c3        1 MOL      0.109003
    148 N13       -12.1080   -0.8350   -2.3130 n4        1 MOL     -0.251947
    149 H67        -6.9410   -3.0740    1.3390 hn        1 MOL      0.271555
    150 H68        -6.6460   -4.1690   -0.6140 h1        1 MOL      0.070151
    151 H69        -7.4190   -2.9940   -2.5870 hc        1 MOL      0.156864
    152 H70        -7.1670   -1.3680   -1.8100 hc        1 MOL      0.156864
    153 H71        -9.0130   -2.1510   -0.1490 hc        1 MOL     -0.046081
    154 H72        -9.1820   -3.5570   -1.2240 hc        1 MOL     -0.046081
    155 H73       -10.0450   -2.2860   -3.0230 hc        1 MOL      0.031115
    156 H74        -9.5200   -0.7470   -2.3180 hc        1 MOL      0.031115
    157 H75       -11.1080   -1.2050   -0.3630 hx        1 MOL      0.027466
    158 H76       -11.5710   -2.6260   -1.2930 hx        1 MOL      0.027466
    159 H77       -13.0290   -0.8070   -1.9080 hn        1 MOL      0.225867
    160 H78       -11.8090    0.1250   -2.4330 hn        1 MOL      0.225867
    161 H79       -12.2340   -1.3730   -3.1610 hn        1 MOL      0.225867
    162 N14        -4.0960   -3.8220   -1.0530 n         1 MOL     -0.671072
    163 C49        -2.7480   -3.8290   -1.5820 c3        1 MOL      0.344462
    164 C50        -1.7730   -2.9790   -0.6670 c         1 MOL      0.388024
    165 O22        -1.2250   -2.0650   -1.2370 o         1 MOL     -0.584841
    166 C51        -2.2710   -5.3210   -1.9180 c3        1 MOL     -0.338318
    167 C52        -3.0260   -5.7850   -3.1620 c3        1 MOL     -0.264503
    168 C53        -3.0680   -7.3390   -3.1710 c         1 MOL      0.743523
    169 O23        -2.2090   -7.9660   -3.8500 o         1 MOL     -0.645269
    170 O24        -4.0480   -7.8930   -2.6640 o         1 MOL     -0.645269
    171 H80        -4.3860   -4.5220   -0.3940 hn        1 MOL      0.334826
    172 H81        -2.6900   -3.3260   -2.5460 h1        1 MOL      0.050583
    173 H82        -2.3280   -6.0180   -1.0800 hc        1 MOL      0.139460
    174 H83        -1.1960   -5.3130   -2.1140 hc        1 MOL      0.139460
    175 H84        -2.5340   -5.4380   -4.0710 hc        1 MOL      0.078501
    176 H85        -3.9690   -5.2500   -3.2910 hc        1 MOL      0.078501
    177 N15        -1.3900   -3.2920    0.6010 n         1 MOL     -0.290993
    178 C54        -1.8920   -4.4500    1.4170 c3        1 MOL      0.001277
    179 H86        -1.4130   -5.3680    1.0770 h1        1 MOL      0.034414
    180 H87        -1.6550   -4.2850    2.4680 h1        1 MOL      0.034414
    181 H88        -2.9720   -4.5390    1.2980 h1        1 MOL      0.034414
    182 H89        -0.6830   -2.6890    0.9960 hn        1 MOL      0.269822
    183 Ca1        -0.6070    0.5320   -0.9250 Ca        1 MOL      1.792074
    184 O25        -2.0840   -0.3850   -3.3720 oh        1 MOL     -0.827426
    185 H90        -2.1820   -1.3240   -3.2660 ho        1 MOL      0.391662
    186 H91        -1.4330   -0.2850   -4.0620 ho        1 MOL      0.391662
    187 O26        -3.4230    0.8810   -1.1130 oh        1 MOL     -0.827426
    188 H92        -3.7550    1.7130   -1.4430 ho        1 MOL      0.391662
    189 H93        -4.1680    0.2770   -1.1830 ho        1 MOL      0.391662
    190 O27         1.2860   -0.7620   -2.4890 oh        1 MOL     -0.827426
    191 H94         2.1980   -0.6740   -2.2190 ho        1 MOL      0.391662
    192 H95         1.2570   -0.4260   -3.3790 ho        1 MOL      0.391662
@<TRIPOS>BOND
     1    1    2 1   
     2    1    4 1   
     3    1    5 1   
     4    1    6 1   
     5    2    3 2   
     6    2    7 1   
     7    7    8 1   
     8    7   15 1   
     9    8    9 1   
    10    8   11 1   
    11    8   16 1   
    12    9   10 2   
    13    9   19 1   
    14   11   12 1   
    15   11   17 1   
    16   11   18 1   
    17   12   13 1   
    18   12   14 1   
    19   19   20 1   
    20   19   28 1   
    21   20   21 1   
    22   20   23 1   
    23   20   29 1   
    24   21   22 2   
    25   21   41 1   
    26   23   24 1   
    27   23   30 1   
    28   23   31 1   
    29   24   25 1   
    30   24   32 1   
    31   24   33 1   
    32   25   26 1   
    33   25   34 1   
    34   25   35 1   
    35   26   27 1   
    36   26   36 1   
    37   26   37 1   
    38   27   38 1   
    39   27   39 1   
    40   27   40 1   
    41   41   42 1   
    42   41   49 1   
    43   42   43 1   
    44   42   45 1   
    45   42   50 1   
    46   43   44 2   
    47   43   53 1   
    48   45   46 1   
    49   45   51 1   
    50   45   52 1   
    51   46   47 1   
    52   46   48 1   
    53   53   54 1   
    54   53   57 1   
    55   54   55 1   
    56   54   58 1   
    57   54   59 1   
    58   55   56 2   
    59   55   60 1   
    60   60   61 1   
    61   60   68 1   
    62   61   62 1   
    63   61   64 1   
    64   61   69 1   
    65   62   63 2   
    66   62   72 1   
    67   64   65 1   
    68   64   70 1   
    69   64   71 1   
    70   65   66 1   
    71   65   67 1   
    72   72   73 1   
    73   72   76 1   
    74   73   74 1   
    75   73   77 1   
    76   73   78 1   
    77   74   75 2   
    78   74   79 1   
    79   79   80 1   
    80   79   86 1   
    81   80   81 1   
    82   80   83 1   
    83   80   87 1   
    84   81   82 2   
    85   81   93 1   
    86   83   84 1   
    87   83   85 1   
    88   83   88 1   
    89   84   90 1   
    90   84   91 1   
    91   84   92 1   
    92   85   89 1   
    93   93   94 1   
    94   93  101 1   
    95   94   95 1   
    96   94   97 1   
    97   94  102 1   
    98   95   96 2   
    99   95  112 1   
   100   97   98 1   
   101   97   99 1   
   102   97  103 1   
   103   98  100 1   
   104   98  104 1   
   105   98  105 1   
   106   99  106 1   
   107   99  107 1   
   108   99  108 1   
   109  100  109 1   
   110  100  110 1   
   111  100  111 1   
   112  112  113 1   
   113  112  119 1   
   114  113  114 1   
   115  113  116 1   
   116  113  120 1   
   117  114  115 2   
   118  114  126 1   
   119  116  117 1   
   120  116  118 1   
   121  116  121 1   
   122  117  123 1   
   123  117  124 1   
   124  117  125 1   
   125  118  122 1   
   126  126  127 1   
   127  126  133 1   
   128  127  128 1   
   129  127  130 1   
   130  127  134 1   
   131  128  129 2   
   132  128  140 1   
   133  130  131 1   
   134  130  132 1   
   135  130  135 1   
   136  131  137 1   
   137  131  138 1   
   138  131  139 1   
   139  132  136 1   
   140  140  141 1   
   141  140  149 1   
   142  141  142 1   
   143  141  144 1   
   144  141  150 1   
   145  142  143 2   
   146  142  162 1   
   147  144  145 1   
   148  144  151 1   
   149  144  152 1   
   150  145  146 1   
   151  145  153 1   
   152  145  154 1   
   153  146  147 1   
   154  146  155 1   
   155  146  156 1   
   156  147  148 1   
   157  147  157 1   
   158  147  158 1   
   159  148  159 1   
   160  148  160 1   
   161  148  161 1   
   162  162  163 1   
   163  162  171 1   
   164  163  164 1   
   165  163  166 1   
   166  163  172 1   
   167  164  165 2   
   168  164  177 1   
   169  166  167 1   
   170  166  173 1   
   171  166  174 1   
   172  167  168 1   
   173  167  175 1   
   174  167  176 1   
   175  168  169 1   
   176  168  170 1   
   177  177  178 1   
   178  177  182 1   
   179  178  179 1   
   180  178  180 1   
   181  178  181 1   
   182  184  185 1   
   183  184  186 1   
   184  187  188 1   
   185  187  189 1   
   186  190  191 1   
   187  190  192 1   
@<TRIPOS>SUBSTRUCTURE
     1 MOL         1 TEMP              0 ****  ****    0 ROOT
