@<TRIPOS>MOLECULE
MOL
  181   177     1     0     0
SMALL
resp


@<TRIPOS>ATOM
      1 C1         -5.4260    5.6910    4.8700 c3        1 MOL     -0.127103
      2 C2         -4.8250    4.6090    3.9520 c         1 MOL      0.722561
      3 O1         -3.7350    4.1550    4.2010 o         1 MOL     -0.603984
      4 H1         -5.3440    5.3710    5.9090 hc        1 MOL      0.010195
      5 H2         -4.8830    6.6260    4.7350 hc        1 MOL      0.010195
      6 H3         -6.4760    5.8400    4.6180 hc        1 MOL      0.010195
      7 N1         -5.5270    4.1530    2.9370 n         1 MOL     -0.547491
      8 C3         -6.8290    4.6840    2.4230 c3        1 MOL     -0.014214
      9 C4         -6.6370    5.1910    0.9680 c         1 MOL      0.528400
     10 O2         -5.5590    5.7130    0.7090 o         1 MOL     -0.460446
     11 C5         -7.8610    3.5440    2.6930 c3        1 MOL     -0.091575
     12 C6         -7.6740    2.3620    1.7720 c         1 MOL      0.764237
     13 O3         -7.9720    2.4510    0.5810 o         1 MOL     -0.753514
     14 O4         -7.2930    1.2970    2.3510 o         1 MOL     -0.753514
     15 H4         -5.1030    3.4120    2.3970 hn        1 MOL      0.375731
     16 H5         -7.2150    5.5590    2.9500 h1        1 MOL      0.093829
     17 H6         -8.8620    3.9380    2.5110 hc        1 MOL     -0.007417
     18 H7         -7.8760    3.2150    3.7360 hc        1 MOL     -0.007417
     19 N2         -7.6710    5.2920    0.1730 n         1 MOL     -0.520228
     20 C7         -7.5990    5.6920   -1.2330 c3        1 MOL      0.170173
     21 C8         -6.4910    4.9590   -1.9280 c         1 MOL      0.383345
     22 O5         -5.6940    5.6020   -2.6080 o         1 MOL     -0.502465
     23 C9         -7.5320    7.2350   -1.0920 c3        1 MOL     -0.375994
     24 H8         -8.5000    4.7440    0.3650 hn        1 MOL      0.318524
     25 H9         -8.5890    5.4000   -1.5630 h1        1 MOL      0.049223
     26 H10        -7.4510    7.7520   -2.0470 hc        1 MOL      0.104103
     27 H11        -8.4400    7.5180   -0.5590 hc        1 MOL      0.104103
     28 H12        -6.7640    7.6450   -0.4420 hc        1 MOL      0.104103
     29 N3         -6.3890    3.6770   -1.8130 n         1 MOL     -0.294329
     30 C10        -5.3360    2.7460   -2.3390 c3        1 MOL      0.173804
     31 C11        -6.0020    1.3400   -2.7270 c         1 MOL      0.341122
     32 O6         -7.0460    1.0510   -2.1440 o         1 MOL     -0.496719
     33 C12        -4.1470    2.5070   -1.4380 c3        1 MOL     -0.104525
     34 C13        -4.5920    1.9610   -0.0480 c         1 MOL      0.735165
     35 O7         -5.2160    0.8850    0.0480 o         1 MOL     -0.692853
     36 O8         -4.1080    2.4850    1.0170 o         1 MOL     -0.692853
     37 H13        -6.9790    3.2250   -1.1350 hn        1 MOL      0.155692
     38 H14        -4.9390    3.1000   -3.2870 h1        1 MOL      0.011255
     39 H15        -3.5930    3.4390   -1.3980 hc        1 MOL      0.049837
     40 H16        -3.5540    1.7260   -1.9010 hc        1 MOL      0.049837
     41 N4         -5.4720    0.4040   -3.5550 n         1 MOL     -0.319098
     42 C14        -6.1130   -0.8640   -3.9520 c3        1 MOL     -0.338566
     43 C15        -5.9940   -2.0130   -2.8890 c         1 MOL      0.824700
     44 O9         -6.3260   -1.7670   -1.7130 o         1 MOL     -0.738023
     45 H17        -4.5390    0.5610   -3.8980 hn        1 MOL      0.296199
     46 H18        -5.7210   -1.2000   -4.9090 h1        1 MOL      0.152502
     47 H19        -7.1790   -0.6630   -4.0510 h1        1 MOL      0.152502
     48 N5         -5.6650   -3.2120   -3.3650 n         1 MOL     -0.672304
     49 C16        -5.5150   -4.3200   -2.4320 c3        1 MOL      0.158764
     50 C17        -4.1870   -4.1560   -1.5960 c         1 MOL      0.689737
     51 O10        -3.1810   -3.8540   -2.1650 o         1 MOL     -0.475307
     52 C18        -5.4860   -5.6420   -3.2250 c3        1 MOL     -0.584286
     53 C19        -6.8220   -5.8990   -3.7600 c         1 MOL      0.908520
     54 N6         -7.0360   -5.6330   -5.0330 n         1 MOL     -0.853884
     55 O11        -7.7620   -6.3090   -3.1450 o         1 MOL     -0.607133
     56 H20        -5.3220   -3.2920   -4.3150 hn        1 MOL      0.331124
     57 H21        -6.3450   -4.3770   -1.7360 h1        1 MOL      0.051842
     58 H22        -5.1900   -6.4800   -2.6030 hc        1 MOL      0.174520
     59 H23        -4.6830   -5.6670   -3.9710 hc        1 MOL      0.174520
     60 H24        -6.3370   -5.0650   -5.4940 hn        1 MOL      0.362858
     61 H25        -7.9690   -5.6440   -5.4140 hn        1 MOL      0.362858
     62 N7         -4.1500   -4.5060   -0.3080 n         1 MOL     -0.619498
     63 C20        -3.0250   -4.3470    0.6260 c3        1 MOL     -0.067478
     64 C21        -1.9690   -5.4640    0.4280 c         1 MOL      0.673903
     65 O12        -2.1400   -6.3640   -0.3670 o         1 MOL     -0.557065
     66 H26        -5.0600   -4.6080    0.1240 hn        1 MOL      0.303144
     67 H27        -3.3750   -4.3190    1.6530 h1        1 MOL      0.104693
     68 H28        -2.5580   -3.4290    0.2780 h1        1 MOL      0.104693
     69 N8         -0.8120   -5.4070    1.0620 n         1 MOL     -0.562139
     70 C22        -0.4040   -4.4980    2.1140 c3        1 MOL      0.005659
     71 C23         0.8880   -3.7240    1.6470 c         1 MOL      0.616123
     72 O13         1.4870   -4.0240    0.5980 o         1 MOL     -0.511094
     73 C24        -0.2440   -5.2760    3.4370 c3        1 MOL      0.465646
     74 C25        -1.6150   -5.8540    3.8540 c3        1 MOL     -0.627720
     75 O14         0.7250   -6.2730    3.2600 oh        1 MOL     -0.582151
     76 H29        -0.1240   -6.0600    0.6940 hn        1 MOL      0.322826
     77 H30        -1.2010   -3.7620    2.2640 h1        1 MOL      0.002876
     78 H31         0.1810   -4.6300    4.2080 h1        1 MOL     -0.031272
     79 H32         1.5710   -5.8400    3.1150 ho        1 MOL      0.380070
     80 H33        -2.4280   -5.1290    3.9660 hc        1 MOL      0.163640
     81 H34        -1.9200   -6.5660    3.0880 hc        1 MOL      0.163640
     82 H35        -1.3990   -6.6250    4.5920 hc        1 MOL      0.163640
     83 N9          1.2070   -2.7350    2.3990 n         1 MOL     -0.473707
     84 C26         2.4260   -1.8680    2.4410 c3        1 MOL     -0.056755
     85 C27         3.6360   -2.4990    3.1500 c         1 MOL      0.654918
     86 O15         3.4730   -2.7360    4.3620 o         1 MOL     -0.616792
     87 C28         2.1250   -0.5530    3.2200 c3        1 MOL      0.084779
     88 C29         0.8250    0.1590    2.6520 c3        1 MOL      0.020704
     89 C30         3.3570    0.3780    3.0030 c3        1 MOL     -0.357733
     90 C31         0.4010    1.2810    3.6450 c3        1 MOL     -0.188134
     91 H36         0.6550   -2.6070    3.2390 hn        1 MOL      0.224703
     92 H37         2.5770   -1.5670    1.4120 h1        1 MOL      0.128421
     93 H38         2.1050   -0.6890    4.2940 hc        1 MOL      0.037759
     94 H39         0.0450   -0.5760    2.4700 hc        1 MOL      0.022933
     95 H40         1.0820    0.4750    1.6470 hc        1 MOL      0.022933
     96 H41         4.0880    0.2710    3.8030 hc        1 MOL      0.089666
     97 H42         3.9900    0.0810    2.1740 hc        1 MOL      0.089666
     98 H43         3.0570    1.4210    2.8520 hc        1 MOL      0.089666
     99 H44         0.9600    2.1850    3.4230 hc        1 MOL      0.051583
    100 H45        -0.6640    1.4710    3.5380 hc        1 MOL      0.051583
    101 H46         0.4820    0.9450    4.6790 hc        1 MOL      0.051583
    102 N10         4.7910   -2.6530    2.5330 n         1 MOL     -0.526365
    103 C32         5.1030   -2.4280    1.1000 c3        1 MOL      0.136981
    104 C33         6.3920   -1.5880    0.8650 c         1 MOL      0.507402
    105 O16         7.1410   -1.3020    1.7830 o         1 MOL     -0.507944
    106 C34         5.2980   -3.8460    0.4540 c3        1 MOL     -0.097000
    107 C35         6.1200   -4.7850    1.3470 c         1 MOL      0.772573
    108 O17         5.6000   -5.8030    1.7960 o         1 MOL     -0.704180
    109 O18         7.3270   -4.5730    1.4940 o         1 MOL     -0.704180
    110 H47         5.4520   -3.2300    3.0380 hn        1 MOL      0.327574
    111 H48         4.2730   -1.8680    0.6660 h1        1 MOL      0.044342
    112 H49         5.7540   -3.7110   -0.5280 hc        1 MOL     -0.019031
    113 H50         4.2850   -4.2650    0.4600 hc        1 MOL     -0.019031
    114 N11         6.8620   -1.3720   -0.4120 n         1 MOL     -0.659120
    115 C36         8.0540   -0.6350   -0.7940 c3        1 MOL      0.487194
    116 C37         7.9580   -0.1280   -2.2480 c         1 MOL      0.237794
    117 O19         7.4330   -0.8990   -3.0820 o         1 MOL     -0.474571
    118 C38         9.2920   -1.4860   -0.5390 c3        1 MOL     -0.129317
    119 C39        10.5930   -0.7940   -0.3380 ca        1 MOL     -0.079883
    120 C40        11.4130   -0.5640   -1.4190 ca        1 MOL     -0.004300
    121 C41        10.8000   -0.1090    0.9090 ca        1 MOL     -0.004300
    122 C42        12.5310    0.2810   -1.2620 ca        1 MOL     -0.271746
    123 C43        11.8180    0.7880    0.9950 ca        1 MOL     -0.271746
    124 C44        12.7160    0.9670   -0.0600 ca        1 MOL      0.006859
    125 H51         6.1720   -1.5090   -1.1350 hn        1 MOL      0.338930
    126 H52         8.0980    0.2180   -0.1050 h1        1 MOL     -0.001184
    127 H53         9.4930   -2.1420   -1.3860 hc        1 MOL      0.067278
    128 H54         9.2170   -2.1270    0.3470 hc        1 MOL      0.067278
    129 H55        11.2790   -1.0310   -2.3780 ha        1 MOL      0.098306
    130 H56        10.0720   -0.2920    1.6830 ha        1 MOL      0.098306
    131 H57        13.2170    0.4930   -2.0740 ha        1 MOL      0.127663
    132 H58        12.0310    1.3320    1.9050 ha        1 MOL      0.127663
    133 H59        13.5520    1.6350    0.0290 ha        1 MOL      0.066669
    134 N12         8.5510    1.0690   -2.5810 n         1 MOL      0.001055
    135 C45         9.3080    2.0310   -1.7730 c3        1 MOL     -0.064233
    136 C46         8.5620    2.9630   -0.8870 c         1 MOL      0.357825
    137 O20         9.0160    3.5120    0.1360 o         1 MOL     -0.544482
    138 C47        10.0980    2.8570   -2.8400 c3        1 MOL     -0.262209
    139 C48         9.9400    2.0820   -4.1110 c3        1 MOL      0.122725
    140 C49         8.5230    1.5380   -4.0060 c3        1 MOL     -0.265546
    141 H60        10.0120    1.5300   -1.1190 h1        1 MOL      0.140204
    142 H61         9.6250    3.8150   -3.0750 hc        1 MOL      0.101480
    143 H62        11.1470    3.0090   -2.5960 hc        1 MOL      0.101480
    144 H63        10.1120    2.6740   -5.0070 hc        1 MOL     -0.027154
    145 H64        10.5470    1.1870   -4.2120 hc        1 MOL     -0.027154
    146 H65         7.7440    2.2860   -4.1890 h1        1 MOL      0.144174
    147 H66         8.3780    0.7050   -4.6910 h1        1 MOL      0.144174
    148 N13         7.2520    3.1860   -1.1510 n         1 MOL     -0.194457
    149 C50         6.3100    3.9040   -0.2500 c3        1 MOL      0.139585
    150 C51         6.1800    5.3650   -0.7370 c         1 MOL      0.333626
    151 O21         5.9520    5.5830   -1.9150 o         1 MOL     -0.534230
    152 C52         4.8670    3.4280   -0.2640 c3        1 MOL     -0.115491
    153 C53         4.6470    1.8790   -0.1820 c3        1 MOL     -0.088894
    154 C54         4.4630    1.2180   -1.5480 c         1 MOL      0.733891
    155 O22         5.1720    1.5500   -2.5480 o         1 MOL     -0.706482
    156 O23         3.5600    0.3690   -1.5460 o         1 MOL     -0.706482
    157 H67         6.8850    2.7080   -1.9570 hn        1 MOL      0.181363
    158 H68         6.7690    3.9460    0.7360 h1        1 MOL      0.062838
    159 H69         4.2460    3.6860   -1.1160 hc        1 MOL      0.058584
    160 H70         4.4700    3.9050    0.6340 hc        1 MOL      0.058584
    161 H71         3.7400    1.7610    0.4140 hc        1 MOL     -0.006540
    162 H72         5.4870    1.3360    0.2410 hc        1 MOL     -0.006540
    163 N14         6.3310    6.3910    0.1080 n         1 MOL     -0.302968
    164 C55         6.4130    6.4370    1.6170 c3        1 MOL     -0.098847
    165 H73         5.4190    6.2870    2.0390 h1        1 MOL      0.062351
    166 H74         7.0800    5.6510    1.9700 h1        1 MOL      0.062351
    167 H75         6.7970    7.4080    1.9310 h1        1 MOL      0.062351
    168 H76         6.2060    7.3160   -0.2950 hn        1 MOL      0.253487
    169 Ca1        -7.4540   -0.2600    0.1510 Ca        1 MOL      1.786564
    170 O24        -5.8710   -1.6760    2.1050 oh        1 MOL     -0.807088
    171 H77        -5.5480   -2.2740    2.7830 ho        1 MOL      0.390189
    172 H78        -5.0950   -1.2050    1.8280 ho        1 MOL      0.390189
    173 O25        -9.5490   -0.4840   -1.9950 oh        1 MOL     -0.807088
    174 H79       -10.4010   -0.0290   -1.9730 ho        1 MOL      0.390189
    175 H80        -9.6290   -1.1090   -2.7100 ho        1 MOL      0.390189
    176 O26        -8.6000   -2.6670    0.3850 oh        1 MOL     -0.807088
    177 H81        -9.4490   -3.0610    0.1790 ho        1 MOL      0.390189
    178 H82        -8.0390   -3.4140    0.5890 ho        1 MOL      0.390189
    179 O27        -9.6490   -0.1720    1.6160 oh        1 MOL     -0.807088
    180 H83       -10.3350    0.4620    1.7980 ho        1 MOL      0.390189
    181 H84        -9.9710   -0.9910    1.9980 ho        1 MOL      0.390189
@<TRIPOS>BOND
     1    1    2 1   
     2    1    4 1   
     3    1    5 1   
     4    1    6 1   
     5    2    3 2   
     6    2    7 1   
     7    7    8 1   
     8    7   15 1   
     9    8    9 1   
    10    8   11 1   
    11    8   16 1   
    12    9   10 2   
    13    9   19 1   
    14   11   12 1   
    15   11   17 1   
    16   11   18 1   
    17   12   13 1   
    18   12   14 1   
    19   19   20 1   
    20   19   24 1   
    21   20   21 1   
    22   20   23 1   
    23   20   25 1   
    24   21   22 2   
    25   21   29 1   
    26   23   26 1   
    27   23   27 1   
    28   23   28 1   
    29   29   30 1   
    30   29   37 1   
    31   30   31 1   
    32   30   33 1   
    33   30   38 1   
    34   31   32 2   
    35   31   41 1   
    36   33   34 1   
    37   33   39 1   
    38   33   40 1   
    39   34   35 1   
    40   34   36 1   
    41   41   42 1   
    42   41   45 1   
    43   42   43 1   
    44   42   46 1   
    45   42   47 1   
    46   43   44 2   
    47   43   48 1   
    48   48   49 1   
    49   48   56 1   
    50   49   50 1   
    51   49   52 1   
    52   49   57 1   
    53   50   51 2   
    54   50   62 1   
    55   52   53 1   
    56   52   58 1   
    57   52   59 1   
    58   53   54 1   
    59   53   55 2   
    60   54   60 1   
    61   54   61 1   
    62   62   63 1   
    63   62   66 1   
    64   63   64 1   
    65   63   67 1   
    66   63   68 1   
    67   64   65 2   
    68   64   69 1   
    69   69   70 1   
    70   69   76 1   
    71   70   71 1   
    72   70   73 1   
    73   70   77 1   
    74   71   72 2   
    75   71   83 1   
    76   73   74 1   
    77   73   75 1   
    78   73   78 1   
    79   74   80 1   
    80   74   81 1   
    81   74   82 1   
    82   75   79 1   
    83   83   84 1   
    84   83   91 1   
    85   84   85 1   
    86   84   87 1   
    87   84   92 1   
    88   85   86 2   
    89   85  102 1   
    90   87   88 1   
    91   87   89 1   
    92   87   93 1   
    93   88   90 1   
    94   88   94 1   
    95   88   95 1   
    96   89   96 1   
    97   89   97 1   
    98   89   98 1   
    99   90   99 1   
   100   90  100 1   
   101   90  101 1   
   102  102  103 1   
   103  102  110 1   
   104  103  104 1   
   105  103  106 1   
   106  103  111 1   
   107  104  105 2   
   108  104  114 1   
   109  106  107 1   
   110  106  112 1   
   111  106  113 1   
   112  107  108 1   
   113  107  109 1   
   114  114  115 1   
   115  114  125 1   
   116  115  116 1   
   117  115  118 1   
   118  115  126 1   
   119  116  117 2   
   120  116  134 1   
   121  118  119 1   
   122  118  127 1   
   123  118  128 1   
   124  119  120 ar  
   125  119  121 ar  
   126  120  122 ar  
   127  120  129 1   
   128  121  123 ar  
   129  121  130 1   
   130  122  124 ar  
   131  122  131 1   
   132  123  124 ar  
   133  123  132 1   
   134  124  133 1   
   135  134  135 1   
   136  134  140 1   
   137  135  136 1   
   138  135  138 1   
   139  135  141 1   
   140  136  137 2   
   141  136  148 1   
   142  138  139 1   
   143  138  142 1   
   144  138  143 1   
   145  139  140 1   
   146  139  144 1   
   147  139  145 1   
   148  140  146 1   
   149  140  147 1   
   150  148  149 1   
   151  148  157 1   
   152  149  150 1   
   153  149  152 1   
   154  149  158 1   
   155  150  151 2   
   156  150  163 1   
   157  152  153 1   
   158  152  159 1   
   159  152  160 1   
   160  153  154 1   
   161  153  161 1   
   162  153  162 1   
   163  154  155 1   
   164  154  156 1   
   165  163  164 1   
   166  163  168 1   
   167  164  165 1   
   168  164  166 1   
   169  164  167 1   
   170  170  171 1   
   171  170  172 1   
   172  173  174 1   
   173  173  175 1   
   174  176  177 1   
   175  176  178 1   
   176  179  180 1   
   177  179  181 1   
@<TRIPOS>SUBSTRUCTURE
     1 MOL         1 TEMP              0 ****  ****    0 ROOT
