@<TRIPOS>MOLECULE
MOL
  195   189     1     0     0
SMALL
resp


@<TRIPOS>ATOM
      1 C1        -12.8230   -3.2980   -3.3710 c3        1 MOL     -0.312662
      2 C2        -12.4690   -2.0590   -2.4980 c         1 MOL      0.525972
      3 O1        -13.1350   -0.9950   -2.5180 o         1 MOL     -0.553623
      4 H1        -13.1080   -4.1280   -2.7240 hc        1 MOL      0.088133
      5 H2        -13.6540   -3.0510   -4.0320 hc        1 MOL      0.088133
      6 H3        -11.9560   -3.5840   -3.9670 hc        1 MOL      0.088133
      7 N1        -11.4500   -2.2210   -1.6700 n         1 MOL     -0.099289
      8 C3        -10.8130   -1.3410   -0.7050 c3        1 MOL     -0.219221
      9 C4         -9.2640   -1.3020   -0.7530 c         1 MOL      0.660197
     10 O2         -8.6490   -2.3970   -0.8910 o         1 MOL     -0.654082
     11 C5        -11.1990   -1.8580    0.7140 c3        1 MOL     -0.063844
     12 C6        -11.0890   -3.3440    1.1130 c         1 MOL      0.581117
     13 O3        -10.4500   -4.0770    0.3680 o         1 MOL     -0.639943
     14 O4        -11.6990   -3.7190    2.1400 o         1 MOL     -0.639943
     15 H4        -10.9200   -3.0770   -1.8190 hn        1 MOL      0.075398
     16 H5        -11.2760   -0.3970   -0.9780 h1        1 MOL      0.089101
     17 H6        -12.2380   -1.5920    0.9030 hc        1 MOL      0.049954
     18 H7        -10.5940   -1.3730    1.4900 hc        1 MOL      0.049954
     19 N2         -8.5480   -0.1650   -0.6840 n         1 MOL     -0.583484
     20 C7         -7.0620   -0.0170   -0.7740 c3        1 MOL      0.228657
     21 C8         -6.3620   -0.4940    0.5230 c         1 MOL      0.602274
     22 O5         -6.7680   -0.1560    1.6130 o         1 MOL     -0.485432
     23 C9         -6.6410    1.4080   -1.3140 c3        1 MOL     -0.199637
     24 C10        -6.7260    2.4960   -0.1390 c3        1 MOL     -0.096296
     25 C11        -5.9770    3.7320   -0.5860 c3        1 MOL      0.053876
     26 C12        -6.7310    4.5540   -1.6090 c3        1 MOL     -0.056229
     27 N3         -5.9320    5.6320   -2.2280 n4        1 MOL     -0.352884
     28 H8         -9.0210    0.7130   -0.5260 hn        1 MOL      0.329578
     29 H9         -6.7550   -0.7550   -1.5090 h1        1 MOL      0.010491
     30 H10        -7.2260    1.7370   -2.1650 hc        1 MOL      0.065491
     31 H11        -5.5960    1.2500   -1.5800 hc        1 MOL      0.065491
     32 H12        -6.2150    2.0720    0.7240 hc        1 MOL      0.057864
     33 H13        -7.7680    2.7580    0.0250 hc        1 MOL      0.057864
     34 H14        -4.9560    3.4710   -0.8690 hc        1 MOL      0.046001
     35 H15        -5.9280    4.3370    0.3190 hc        1 MOL      0.046001
     36 H16        -7.5590    5.0310   -1.0970 hx        1 MOL      0.112577
     37 H17        -7.2520    3.9510   -2.3520 hx        1 MOL      0.112577
     38 H18        -6.4310    6.3000   -2.8020 hn        1 MOL      0.292341
     39 H19        -5.5410    6.2430   -1.5320 hn        1 MOL      0.292341
     40 H20        -5.1650    5.2320   -2.7550 hn        1 MOL      0.292341
     41 N4         -5.2010   -1.0430    0.2150 n         1 MOL     -0.982848
     42 C13        -4.0440   -1.1610    1.1570 c3        1 MOL      0.545791
     43 C14        -2.8600   -0.4780    0.6140 c         1 MOL      0.315843
     44 O6         -2.1390   -1.0110   -0.2660 o         1 MOL     -0.530369
     45 C15        -3.7960   -2.5950    1.6050 c3        1 MOL     -0.323705
     46 C16        -5.0790   -3.3370    1.9640 c         1 MOL      0.831014
     47 O7         -5.4700   -3.4420    3.1630 o         1 MOL     -0.737371
     48 O8         -5.6560   -3.9420    1.0490 o         1 MOL     -0.737371
     49 H21        -4.9700   -1.0920   -0.7620 hn        1 MOL      0.417123
     50 H22        -4.2860   -0.5270    2.0170 h1        1 MOL     -0.032900
     51 H23        -3.1460   -2.5360    2.4740 hc        1 MOL      0.086697
     52 H24        -3.3030   -3.1950    0.8380 hc        1 MOL      0.086697
     53 N5         -2.6130    0.8150    1.0120 n         1 MOL     -0.189509
     54 C17        -3.3550    1.5780    2.0510 c3        1 MOL     -0.108370
     55 C18        -3.0630    3.0830    1.9750 c         1 MOL      0.575738
     56 O9         -2.8660    3.6830    0.9520 o         1 MOL     -0.583219
     57 H25        -1.7270    1.1560    0.6720 hn        1 MOL      0.211875
     58 H26        -3.0720    1.1490    3.0020 h1        1 MOL      0.088670
     59 H27        -4.4250    1.4610    1.9130 h1        1 MOL      0.088670
     60 N6         -2.8180    3.7010    3.1570 n         1 MOL     -0.453171
     61 C19        -2.4060    5.1270    3.2610 c3        1 MOL      0.080710
     62 C20        -1.0100    5.3850    2.5720 c         1 MOL      0.561711
     63 O10        -0.0430    4.6950    2.7990 o         1 MOL     -0.504616
     64 C21        -2.3580    5.5720    4.7240 c3        1 MOL     -0.278262
     65 C22        -2.2350    7.0870    4.8090 c         1 MOL      0.740491
     66 O11        -1.2280    7.6630    5.3000 o         1 MOL     -0.676889
     67 O12        -3.2160    7.7170    4.5040 o         1 MOL     -0.676889
     68 H28        -2.9200    3.1370    3.9870 hn        1 MOL      0.287556
     69 H29        -3.0930    5.7430    2.6950 h1        1 MOL      0.006979
     70 H30        -1.5610    4.9950    5.1880 hc        1 MOL      0.078756
     71 H31        -3.3390    5.2820    5.1140 hc        1 MOL      0.078756
     72 N7         -0.9790    6.4670    1.8030 n         1 MOL     -0.383351
     73 C23         0.1810    6.8930    0.9580 c3        1 MOL     -0.094705
     74 C24         0.4770    6.1080   -0.3170 c         1 MOL      0.455697
     75 O13         1.3100    6.5040   -1.1520 o         1 MOL     -0.547471
     76 H32        -1.8900    6.8860    1.6950 hn        1 MOL      0.258569
     77 H33         1.0290    7.0370    1.6300 h1        1 MOL      0.116495
     78 H34         0.0120    7.9310    0.6790 h1        1 MOL      0.116495
     79 N8         -0.2040    4.9510   -0.4210 n         1 MOL     -0.213498
     80 C25        -0.2490    4.0650   -1.6270 c3        1 MOL      0.030389
     81 C26         0.0390    2.6710   -1.1500 c         1 MOL      0.247546
     82 O14        -0.1550    2.3090    0.0050 o         1 MOL     -0.335942
     83 C27        -1.6350    4.2370   -2.3380 c3        1 MOL      0.418517
     84 C28        -1.8830    5.7040   -2.7760 c3        1 MOL     -0.509950
     85 O15        -1.5410    3.4850   -3.5280 oh        1 MOL     -0.585793
     86 H35        -0.9290    4.7800    0.2580 hn        1 MOL      0.120830
     87 H36         0.5450    4.4390   -2.2930 h1        1 MOL      0.085726
     88 H37        -2.4740    3.9880   -1.6870 h1        1 MOL     -0.045314
     89 H38        -1.7900    2.6130   -3.2120 ho        1 MOL      0.338807
     90 H39        -1.0690    5.9570   -3.4410 hc        1 MOL      0.131491
     91 H40        -2.8380    5.8240   -3.2890 hc        1 MOL      0.131491
     92 H41        -1.6520    6.4580   -2.0190 hc        1 MOL      0.131491
     93 N9          0.5330    1.8760   -2.0890 n         1 MOL     -0.218125
     94 C29         0.7410    0.4750   -1.9280 c3        1 MOL     -0.251256
     95 C30         2.0160    0.2400   -1.0920 c         1 MOL      0.574555
     96 O16         2.0170   -0.6000   -0.1660 o         1 MOL     -0.508571
     97 C31         0.6690   -0.2550   -3.3090 c3        1 MOL      0.234275
     98 C32        -0.6850   -0.0700   -3.9850 c3        1 MOL      0.004082
     99 C33         1.0900   -1.6960   -3.4050 c3        1 MOL     -0.224363
    100 C34        -0.8000   -0.4890   -5.3980 c3        1 MOL     -0.234400
    101 H42         0.9240    2.3010   -2.9150 hn        1 MOL      0.230286
    102 H43        -0.0240    0.0030   -1.3130 h1        1 MOL      0.123559
    103 H44         1.3710    0.3470   -3.8780 hc        1 MOL     -0.033829
    104 H45        -1.0920    0.9350   -3.8450 hc        1 MOL      0.027290
    105 H46        -1.3720   -0.7700   -3.5120 hc        1 MOL      0.027290
    106 H47         1.4330   -1.8380   -4.4290 hc        1 MOL      0.066602
    107 H48         2.0410   -1.8630   -2.8990 hc        1 MOL      0.066602
    108 H49         0.3270   -2.4350   -3.1240 hc        1 MOL      0.066602
    109 H50        -1.8240   -0.2470   -5.6600 hc        1 MOL      0.053529
    110 H51        -0.1090    0.0910   -6.0110 hc        1 MOL      0.053529
    111 H52        -0.5590   -1.5500   -5.4570 hc        1 MOL      0.053529
    112 N10         3.1470    0.9320   -1.3900 n         1 MOL     -0.429323
    113 C35         4.4870    0.9640   -0.6550 c3        1 MOL     -0.042308
    114 C36         5.6380    1.4830   -1.4710 c         1 MOL      0.534202
    115 O17         5.3510    2.2550   -2.3980 o         1 MOL     -0.518236
    116 C37         4.3470    1.8530    0.5980 c3        1 MOL      0.336483
    117 C38         3.5950    3.1870    0.3240 c3        1 MOL     -0.164982
    118 O18         3.6470    1.1990    1.6100 oh        1 MOL     -0.547286
    119 H53         3.1290    1.5500   -2.1850 hn        1 MOL      0.260118
    120 H54         4.7030   -0.0540   -0.3240 h1        1 MOL      0.062384
    121 H55         5.3400    2.1230    0.9800 h1        1 MOL     -0.037988
    122 H56         4.1480    0.3800    1.7300 ho        1 MOL      0.366193
    123 H57         3.9010    3.9620    1.0170 hc        1 MOL      0.063695
    124 H58         3.8000    3.5350   -0.6870 hc        1 MOL      0.063695
    125 H59         2.5340    2.9610    0.4050 hc        1 MOL      0.063695
    126 N11         6.8880    1.1140   -1.1220 n         1 MOL     -0.442414
    127 C39         8.1030    1.4980   -2.0290 c3        1 MOL     -0.099676
    128 C40         8.9850    0.2500   -2.1320 c         1 MOL      0.600816
    129 O19         9.3570   -0.3060   -3.1860 o         1 MOL     -0.559538
    130 C41         8.7390    2.7650   -1.5380 c3        1 MOL      0.307972
    131 C42         9.9280    3.0380   -2.2810 c3        1 MOL     -0.490259
    132 O20         9.1000    2.5870   -0.1820 oh        1 MOL     -0.613532
    133 H60         7.0500    0.4780   -0.3640 hn        1 MOL      0.279503
    134 H61         7.6900    1.6270   -3.0320 h1        1 MOL      0.121753
    135 H62         8.0010    3.5600   -1.6290 h1        1 MOL      0.066692
    136 H63         9.4770    3.4250    0.0880 ho        1 MOL      0.396762
    137 H64        10.1950    4.0890   -2.2520 hc        1 MOL      0.131388
    138 H65        10.6810    2.3000   -2.0010 hc        1 MOL      0.131388
    139 H66         9.7290    2.8720   -3.3370 hc        1 MOL      0.131388
    140 N12         9.3890   -0.3480   -1.0000 n         1 MOL     -0.455413
    141 C43        10.1760   -1.6410   -0.9420 c3        1 MOL      0.215925
    142 C44         9.6100   -2.4540    0.2180 c         1 MOL      0.357982
    143 O21         9.2280   -1.8670    1.2290 o         1 MOL     -0.459087
    144 C45        11.6480   -1.4370   -0.9790 c3        1 MOL     -0.125083
    145 C46        12.2530   -0.4010   -0.0110 c3        1 MOL      0.125983
    146 C47        13.7150   -0.4670   -0.0130 c3        1 MOL     -0.004799
    147 C48        14.2290    0.8540    0.4760 c3        1 MOL      0.175261
    148 N13        15.7190    0.9570    0.3940 n4        1 MOL     -0.418956
    149 H67         9.1370    0.0730   -0.1170 hn        1 MOL      0.249573
    150 H68         9.9120   -2.2560   -1.7980 h1        1 MOL      0.033731
    151 H69        11.7850   -1.1910   -2.0310 hc        1 MOL      0.029896
    152 H70        12.1300   -2.3950   -0.7980 hc        1 MOL      0.029896
    153 H71        11.8410   -0.5970    0.9730 hc        1 MOL      0.008889
    154 H72        11.9770    0.6240   -0.2680 hc        1 MOL      0.008889
    155 H73        13.9890   -0.5920   -1.0570 hc        1 MOL      0.014821
    156 H74        14.0600   -1.2760    0.6230 hc        1 MOL      0.014821
    157 H75        13.9420    1.0140    1.5220 hx        1 MOL      0.030060
    158 H76        13.7230    1.6110   -0.1150 hx        1 MOL      0.030060
    159 H77        16.1230    0.2400    0.9870 hn        1 MOL      0.291425
    160 H78        16.0400    0.8980   -0.5680 hn        1 MOL      0.291425
    161 H79        16.0620    1.8020    0.8350 hn        1 MOL      0.291425
    162 N14         9.6910   -3.8230    0.1550 n         1 MOL     -0.434416
    163 C49         9.1190   -4.7670    1.0900 c3        1 MOL      0.273348
    164 C50         7.5990   -4.5310    1.2680 c         1 MOL      0.345876
    165 O22         7.2170   -4.4110    2.4610 o         1 MOL     -0.492686
    166 C51         9.4350   -6.2390    0.7000 c3        1 MOL     -0.262053
    167 C52        10.8800   -6.6090    1.0560 c3        1 MOL     -0.106482
    168 C53        11.2390   -6.3230    2.4950 c         1 MOL      0.708109
    169 O23        10.7180   -7.0600    3.4060 o         1 MOL     -0.658263
    170 O24        12.0050   -5.4160    2.7470 o         1 MOL     -0.658263
    171 H80        10.3620   -4.0700   -0.5570 hn        1 MOL      0.270505
    172 H81         9.5740   -4.5830    2.0570 h1        1 MOL      0.084918
    173 H82         9.2690   -6.3960   -0.3680 hc        1 MOL      0.104895
    174 H83         8.7120   -6.8000    1.2880 hc        1 MOL      0.104895
    175 H84        11.5300   -5.9570    0.4630 hc        1 MOL     -0.001090
    176 H85        11.1090   -7.6600    0.8660 hc        1 MOL     -0.001090
    177 N15         6.7430   -4.3800    0.2050 n         1 MOL     -0.359265
    178 C54         6.8540   -4.9220   -1.1340 c3        1 MOL      0.040327
    179 H86         6.8870   -4.1050   -1.8550 h1        1 MOL      0.020224
    180 H87         7.7670   -5.5130   -1.2130 h1        1 MOL      0.020224
    181 H88         5.9920   -5.5560   -1.3430 h1        1 MOL      0.020224
    182 H89         5.8210   -4.0320    0.4450 hn        1 MOL      0.287985
    183 Ca1        -7.8810   -4.7440   -0.0140 Ca        1 MOL      1.678800
    184 O25        -5.9440   -6.7120   -0.5770 oh        1 MOL     -0.778589
    185 H90        -6.2280   -7.4780   -1.0810 ho        1 MOL      0.395842
    186 H91        -5.0830   -6.4960   -0.9260 ho        1 MOL      0.395842
    187 O26        -8.0780   -3.2550    2.3910 oh        1 MOL     -0.778589
    188 H92        -7.1400   -3.2840    2.5680 ho        1 MOL      0.395842
    189 H93        -8.4720   -3.0270    3.2320 ho        1 MOL      0.395842
    190 O27        -9.4700   -6.7560   -0.2850 oh        1 MOL     -0.778589
    191 H94        -9.4070   -6.7290   -1.2370 ho        1 MOL      0.395842
    192 H95       -10.2580   -7.2590   -0.1030 ho        1 MOL      0.395842
    193 O28        -7.6630   -6.4230    2.2160 oh        1 MOL     -0.778589
    194 H96        -8.0550   -6.0300    2.9900 ho        1 MOL      0.395842
    195 H97        -6.7350   -6.5030    2.4220 ho        1 MOL      0.395842
@<TRIPOS>BOND
     1    1    2 1   
     2    1    4 1   
     3    1    5 1   
     4    1    6 1   
     5    2    3 2   
     6    2    7 1   
     7    7    8 1   
     8    7   15 1   
     9    8    9 1   
    10    8   11 1   
    11    8   16 1   
    12    9   10 2   
    13    9   19 1   
    14   11   12 1   
    15   11   17 1   
    16   11   18 1   
    17   12   13 1   
    18   12   14 1   
    19   19   20 1   
    20   19   28 1   
    21   20   21 1   
    22   20   23 1   
    23   20   29 1   
    24   21   22 2   
    25   21   41 1   
    26   23   24 1   
    27   23   30 1   
    28   23   31 1   
    29   24   25 1   
    30   24   32 1   
    31   24   33 1   
    32   25   26 1   
    33   25   34 1   
    34   25   35 1   
    35   26   27 1   
    36   26   36 1   
    37   26   37 1   
    38   27   38 1   
    39   27   39 1   
    40   27   40 1   
    41   41   42 1   
    42   41   49 1   
    43   42   43 1   
    44   42   45 1   
    45   42   50 1   
    46   43   44 2   
    47   43   53 1   
    48   45   46 1   
    49   45   51 1   
    50   45   52 1   
    51   46   47 1   
    52   46   48 1   
    53   53   54 1   
    54   53   57 1   
    55   54   55 1   
    56   54   58 1   
    57   54   59 1   
    58   55   56 2   
    59   55   60 1   
    60   60   61 1   
    61   60   68 1   
    62   61   62 1   
    63   61   64 1   
    64   61   69 1   
    65   62   63 2   
    66   62   72 1   
    67   64   65 1   
    68   64   70 1   
    69   64   71 1   
    70   65   66 1   
    71   65   67 1   
    72   72   73 1   
    73   72   76 1   
    74   73   74 1   
    75   73   77 1   
    76   73   78 1   
    77   74   75 2   
    78   74   79 1   
    79   79   80 1   
    80   79   86 1   
    81   80   81 1   
    82   80   83 1   
    83   80   87 1   
    84   81   82 2   
    85   81   93 1   
    86   83   84 1   
    87   83   85 1   
    88   83   88 1   
    89   84   90 1   
    90   84   91 1   
    91   84   92 1   
    92   85   89 1   
    93   93   94 1   
    94   93  101 1   
    95   94   95 1   
    96   94   97 1   
    97   94  102 1   
    98   95   96 2   
    99   95  112 1   
   100   97   98 1   
   101   97   99 1   
   102   97  103 1   
   103   98  100 1   
   104   98  104 1   
   105   98  105 1   
   106   99  106 1   
   107   99  107 1   
   108   99  108 1   
   109  100  109 1   
   110  100  110 1   
   111  100  111 1   
   112  112  113 1   
   113  112  119 1   
   114  113  114 1   
   115  113  116 1   
   116  113  120 1   
   117  114  115 2   
   118  114  126 1   
   119  116  117 1   
   120  116  118 1   
   121  116  121 1   
   122  117  123 1   
   123  117  124 1   
   124  117  125 1   
   125  118  122 1   
   126  126  127 1   
   127  126  133 1   
   128  127  128 1   
   129  127  130 1   
   130  127  134 1   
   131  128  129 2   
   132  128  140 1   
   133  130  131 1   
   134  130  132 1   
   135  130  135 1   
   136  131  137 1   
   137  131  138 1   
   138  131  139 1   
   139  132  136 1   
   140  140  141 1   
   141  140  149 1   
   142  141  142 1   
   143  141  144 1   
   144  141  150 1   
   145  142  143 2   
   146  142  162 1   
   147  144  145 1   
   148  144  151 1   
   149  144  152 1   
   150  145  146 1   
   151  145  153 1   
   152  145  154 1   
   153  146  147 1   
   154  146  155 1   
   155  146  156 1   
   156  147  148 1   
   157  147  157 1   
   158  147  158 1   
   159  148  159 1   
   160  148  160 1   
   161  148  161 1   
   162  162  163 1   
   163  162  171 1   
   164  163  164 1   
   165  163  166 1   
   166  163  172 1   
   167  164  165 2   
   168  164  177 1   
   169  166  167 1   
   170  166  173 1   
   171  166  174 1   
   172  167  168 1   
   173  167  175 1   
   174  167  176 1   
   175  168  169 1   
   176  168  170 1   
   177  177  178 1   
   178  177  182 1   
   179  178  179 1   
   180  178  180 1   
   181  178  181 1   
   182  184  185 1   
   183  184  186 1   
   184  187  188 1   
   185  187  189 1   
   186  190  191 1   
   187  190  192 1   
   188  193  194 1   
   189  193  195 1   
@<TRIPOS>SUBSTRUCTURE
     1 MOL         1 TEMP              0 ****  ****    0 ROOT
