@<TRIPOS>MOLECULE
MOL
  192   187     1     0     0
SMALL
resp


@<TRIPOS>ATOM
      1 C1         -5.7790   -3.4960    5.0210 c3        1 MOL     -0.450954
      2 C2         -5.0890   -2.8820    3.7410 c         1 MOL      0.772228
      3 O1         -4.4830   -3.5520    2.9050 o         1 MOL     -0.619411
      4 H1         -6.8380   -3.2370    5.0220 hc        1 MOL      0.113391
      5 H2         -5.6710   -4.5810    5.0080 hc        1 MOL      0.113391
      6 H3         -5.3070   -3.0940    5.9170 hc        1 MOL      0.113391
      7 N1         -5.3310   -1.5790    3.6060 n         1 MOL     -0.572345
      8 C3         -4.9180   -0.7630    2.4630 c3        1 MOL      0.425542
      9 C4         -3.4350   -0.6720    2.0890 c         1 MOL     -0.021416
     10 O2         -3.1410    0.1380    1.1780 o         1 MOL     -0.008136
     11 C5         -5.4530    0.7130    2.5500 c3        1 MOL     -0.113738
     12 C6         -6.9150    0.8620    2.7730 c         1 MOL      0.662598
     13 O3         -7.5580    1.4780    1.8950 o         1 MOL     -0.685388
     14 O4         -7.4010    0.2760    3.7520 o         1 MOL     -0.685388
     15 H4         -5.8640   -1.1300    4.3310 hn        1 MOL      0.234870
     16 H5         -5.3380   -1.0900    1.5200 h1        1 MOL      0.073356
     17 H6         -5.1730    1.2550    1.6430 hc        1 MOL     -0.036109
     18 H7         -4.8810    1.2290    3.3150 hc        1 MOL     -0.036109
     19 N2         -2.5360   -1.4890    2.6670 n         1 MOL     -0.264807
     20 C7         -1.0690   -1.2460    2.5210 c3        1 MOL      0.003224
     21 C8         -0.5260   -2.4120    1.7680 c         1 MOL      0.558315
     22 O5         -0.7930   -3.5750    2.1130 o         1 MOL     -0.511295
     23 C9         -0.4110   -1.1400    3.9330 c3        1 MOL     -0.055686
     24 C10        -1.0880   -0.1570    4.8420 c3        1 MOL      0.129220
     25 C11        -0.2980   -0.0350    6.1020 c3        1 MOL      0.091875
     26 C12        -1.0310    0.7710    7.1770 c3        1 MOL     -0.234398
     27 N3         -2.4430    0.4490    7.3710 n4        1 MOL     -0.326239
     28 H8         -2.8860   -2.1930    3.3020 hn        1 MOL      0.202729
     29 H9         -1.0780   -0.3790    1.8570 h1        1 MOL      0.119740
     30 H10         0.5910   -0.7190    3.7940 hc        1 MOL      0.036832
     31 H11        -0.3130   -2.1260    4.3730 hc        1 MOL      0.036832
     32 H12        -2.1050   -0.5090    5.0160 hc        1 MOL     -0.040285
     33 H13        -1.0720    0.8170    4.3590 hc        1 MOL     -0.040285
     34 H14         0.7030    0.3790    5.9990 hc        1 MOL      0.025205
     35 H15        -0.0660   -1.0330    6.4870 hc        1 MOL      0.025205
     36 H16        -0.8970    1.7810    6.8000 hx        1 MOL      0.157432
     37 H17        -0.5100    0.6980    8.1260 hx        1 MOL      0.157432
     38 H18        -2.5760   -0.5530    7.4500 hn        1 MOL      0.327085
     39 H19        -2.7730    0.9190    8.2010 hn        1 MOL      0.327085
     40 H20        -3.0320    0.8220    6.6510 hn        1 MOL      0.327085
     41 N4          0.3220   -2.1760    0.7690 n         1 MOL     -0.269014
     42 C13         0.8680   -0.9500    0.2320 c3        1 MOL     -1.529721
     43 C14         1.3290    0.0970    1.1260 c         1 MOL      1.133702
     44 O6          0.7400    1.1030    1.3500 o         1 MOL     -0.650251
     45 C15         0.0840   -0.4850   -1.0510 c3        1 MOL     -0.248290
     46 C16        -0.0330   -1.4540   -2.2250 c         1 MOL      0.740043
     47 O7         -1.0160   -1.2770   -2.9880 o         1 MOL     -0.698325
     48 O8          0.8920   -2.3610   -2.4130 o         1 MOL     -0.698325
     49 H21         0.7110   -3.0740    0.4820 hn        1 MOL      0.220674
     50 H22         1.8020   -1.3510   -0.1580 h1        1 MOL      0.372008
     51 H23         0.6150    0.4050   -1.3940 hc        1 MOL      0.229461
     52 H24        -0.9230   -0.1330   -0.8120 hc        1 MOL      0.229461
     53 N5          2.4230   -0.1830    1.8180 n         1 MOL     -0.192600
     54 C17         3.3090   -1.3970    1.7860 c3        1 MOL      0.019446
     55 C18         4.4720   -1.3350    2.8540 c         1 MOL      0.410976
     56 O9          4.2460   -0.6100    3.8270 o         1 MOL     -0.534368
     57 H25         2.6620    0.5820    2.4260 hn        1 MOL      0.143622
     58 H26         3.7240   -1.4070    0.7760 h1        1 MOL      0.072753
     59 H27         2.7350   -2.2720    2.0600 h1        1 MOL      0.072753
     60 N6          5.5590   -2.0490    2.6930 n         1 MOL     -0.377922
     61 C19         5.8680   -2.9090    1.5520 c3        1 MOL      0.018970
     62 C20         6.7240   -2.2570    0.5210 c         1 MOL      0.450653
     63 O10         7.6080   -1.4340    0.6650 o         1 MOL     -0.461705
     64 C21         6.4820   -4.2730    2.0860 c3        1 MOL     -0.219853
     65 C22         7.6580   -4.0790    3.0980 c         1 MOL      0.735181
     66 O11         8.2710   -5.1050    3.4660 o         1 MOL     -0.666535
     67 O12         7.9910   -2.9650    3.5280 o         1 MOL     -0.666535
     68 H28         6.3270   -1.8530    3.3270 hn        1 MOL      0.319967
     69 H29         4.9760   -3.1950    1.0040 h1        1 MOL      0.042952
     70 H30         6.8020   -4.9030    1.2550 hc        1 MOL      0.035538
     71 H31         5.6550   -4.8780    2.4450 hc        1 MOL      0.035538
     72 N7          6.3370   -2.5270   -0.7210 n         1 MOL     -0.053068
     73 C23         6.9260   -2.1820   -1.9890 c3        1 MOL     -0.420550
     74 C24         6.7560   -0.7560   -2.3730 c         1 MOL      0.634991
     75 O13         7.7590   -0.1770   -2.8070 o         1 MOL     -0.553265
     76 H32         5.6350   -3.2540   -0.7570 hn        1 MOL      0.095511
     77 H33         6.4380   -2.7960   -2.7540 h1        1 MOL      0.154793
     78 H34         8.0040   -2.3040   -1.9080 h1        1 MOL      0.154793
     79 N8          5.6870   -0.1040   -1.9780 n         1 MOL     -0.396479
     80 C25         5.4860    1.3880   -1.9610 c3        1 MOL     -0.151401
     81 C26         4.6020    1.8000   -0.7910 c         1 MOL      0.460443
     82 O14         3.6630    1.0940   -0.4860 o         1 MOL     -0.324659
     83 C27         4.9930    1.9280   -3.2910 c3        1 MOL      0.254613
     84 C28         5.9060    1.8640   -4.5350 c3        1 MOL     -0.389126
     85 O15         4.5820    3.3290   -3.2460 oh        1 MOL     -0.539602
     86 H35         4.9340   -0.7050   -1.6910 hn        1 MOL      0.188795
     87 H36         6.4770    1.7460   -1.6940 h1        1 MOL      0.160732
     88 H37         4.1970    1.2420   -3.5880 h1        1 MOL      0.104432
     89 H38         5.2330    3.8650   -2.8060 ho        1 MOL      0.386169
     90 H39         5.2800    1.9740   -5.4260 hc        1 MOL      0.114823
     91 H40         6.7540    2.5460   -4.5660 hc        1 MOL      0.114823
     92 H41         6.3230    0.8790   -4.7860 hc        1 MOL      0.114823
     93 N9          4.9460    2.9110   -0.0780 n         1 MOL     -0.304996
     94 C29         4.0820    3.3680    1.0410 c3        1 MOL     -0.470141
     95 C30         2.8340    4.1350    0.5630 c         1 MOL      0.482151
     96 O16         1.9100    4.5020    1.2930 o         1 MOL     -0.531688
     97 C31         4.8640    4.1800    2.0990 c3        1 MOL      0.365328
     98 C32         5.6660    5.2560    1.3170 c3        1 MOL      0.039203
     99 C33         5.8950    3.2450    2.8410 c3        1 MOL     -0.158702
    100 C34         6.2210    6.2860    2.2550 c3        1 MOL     -0.314378
    101 H42         5.8210    3.3160   -0.3770 hn        1 MOL      0.227431
    102 H43         3.6220    2.5120    1.5430 h1        1 MOL      0.214702
    103 H44         4.1940    4.5710    2.8560 hc        1 MOL     -0.007699
    104 H45         4.9700    5.7850    0.6740 hc        1 MOL      0.024147
    105 H46         6.4470    4.8530    0.6720 hc        1 MOL      0.024147
    106 H47         5.3710    2.4790    3.4100 hc        1 MOL      0.034348
    107 H48         6.5580    2.7760    2.1220 hc        1 MOL      0.034348
    108 H49         6.4330    3.8920    3.5370 hc        1 MOL      0.034348
    109 H50         5.5780    6.5820    3.0860 hc        1 MOL      0.075649
    110 H51         7.2290    5.9660    2.5250 hc        1 MOL      0.075649
    111 H52         6.4930    7.1950    1.7220 hc        1 MOL      0.075649
    112 N10         2.6370    4.1810   -0.7650 n         1 MOL     -0.215294
    113 C35         1.6010    5.0610   -1.3820 c3        1 MOL     -0.069674
    114 C36         0.1110    4.6820   -1.1880 c         1 MOL      0.310181
    115 O17        -0.7590    5.4270   -1.6720 o         1 MOL     -0.544257
    116 C37         1.9450    5.3850   -2.8390 c3        1 MOL      0.434018
    117 C38         1.6360    4.3460   -3.9900 c3        1 MOL     -0.473710
    118 O18         3.3140    5.8040   -2.9470 oh        1 MOL     -0.667395
    119 H53         3.3020    3.6900   -1.3570 hn        1 MOL      0.112758
    120 H54         1.5880    6.0570   -0.9480 h1        1 MOL      0.121435
    121 H55         1.4100    6.2810   -3.1420 h1        1 MOL      0.041698
    122 H56         3.8660    5.0250   -3.0700 ho        1 MOL      0.351338
    123 H57         1.9180    4.8210   -4.9280 hc        1 MOL      0.128709
    124 H58         2.1650    3.4020   -3.8360 hc        1 MOL      0.128709
    125 H59         0.5520    4.3000   -4.0840 hc        1 MOL      0.128709
    126 N11        -0.2020    3.7060   -0.2880 n         1 MOL     -0.055112
    127 C39        -1.5590    3.1790   -0.0300 c3        1 MOL     -0.091813
    128 C40        -2.4610    2.6630   -1.2160 c         1 MOL      0.222073
    129 O19        -2.2350    2.9980   -2.3840 o         1 MOL     -0.453205
    130 C41        -2.2750    4.1710    0.8640 c3        1 MOL      0.592496
    131 C42        -3.3960    3.5660    1.7220 c3        1 MOL     -0.345739
    132 O20        -2.7340    5.2740    0.1550 oh        1 MOL     -0.758419
    133 H60         0.5330    3.1380    0.0990 hn        1 MOL      0.156212
    134 H61        -1.4920    2.3480    0.6650 h1        1 MOL      0.068278
    135 H62        -1.4770    4.6030    1.4570 h1        1 MOL     -0.080376
    136 H63        -2.0610    5.4930   -0.4900 ho        1 MOL      0.465264
    137 H64        -3.5110    4.2400    2.5710 hc        1 MOL      0.093624
    138 H65        -4.3700    3.5440    1.2360 hc        1 MOL      0.093624
    139 H66        -3.0260    2.6250    2.1160 hc        1 MOL      0.093624
    140 N12        -3.5130    1.8930   -0.9680 n         1 MOL      0.060954
    141 C43        -4.6440    1.5360   -1.8990 c3        1 MOL     -0.193437
    142 C44        -4.9690   -0.0020   -1.9180 c         1 MOL      0.699685
    143 O21        -5.7800   -0.3870   -2.7440 o         1 MOL     -0.628445
    144 C45        -5.9720    2.2680   -1.5450 c3        1 MOL     -0.126036
    145 C46        -5.9420    3.8340   -1.7800 c3        1 MOL      0.056586
    146 C47        -7.3470    4.4240   -2.0150 c3        1 MOL     -0.259209
    147 C48        -8.1060    3.7710   -3.2060 c3        1 MOL      0.209970
    148 N13        -9.3700    4.4730   -3.3350 n4        1 MOL     -0.400208
    149 H67        -3.5150    1.5270   -0.0230 hn        1 MOL     -0.196952
    150 H68        -4.3670    1.8360   -2.9040 h1        1 MOL      0.112673
    151 H69        -6.1480    2.0790   -0.4790 hc        1 MOL      0.081853
    152 H70        -6.7810    1.8690   -2.1500 hc        1 MOL      0.081853
    153 H71        -5.2560    4.1550   -2.5570 hc        1 MOL      0.064363
    154 H72        -5.5530    4.2320   -0.8420 hc        1 MOL      0.064363
    155 H73        -7.1670    5.4730   -2.2530 hc        1 MOL      0.080844
    156 H74        -7.8980    4.2870   -1.0910 hc        1 MOL      0.080844
    157 H75        -8.3110    2.7280   -2.9870 hx        1 MOL      0.039339
    158 H76        -7.4980    3.8610   -4.0980 hx        1 MOL      0.039339
    159 H77        -9.9320    4.0130   -4.0360 hn        1 MOL      0.330976
    160 H78        -9.8450    4.2280   -2.4730 hn        1 MOL      0.330976
    161 H79        -9.2750    5.4770   -3.4170 hn        1 MOL      0.330976
    162 N14        -4.2660   -0.8820   -1.1730 n         1 MOL      0.062624
    163 C49        -4.2460   -2.2810   -1.3880 c3        1 MOL     -0.842932
    164 C50        -5.6260   -2.9970   -1.2680 c         1 MOL      0.548962
    165 O22        -6.2970   -2.8680   -0.2200 o         1 MOL     -0.510114
    166 C51        -3.2140   -2.8990   -0.3820 c3        1 MOL      0.292834
    167 C52        -2.7700   -4.3180   -0.5650 c3        1 MOL     -0.167891
    168 C53        -2.6300   -4.7440   -2.0210 c         1 MOL      0.316388
    169 O23        -3.5370   -5.3280   -2.6400 o         1 MOL     -0.603296
    170 O24        -1.5710   -4.4310   -2.6060 o         1 MOL     -0.603296
    171 H80        -3.7090   -0.5670   -0.3990 hn        1 MOL     -0.133241
    172 H81        -3.8040   -2.4920   -2.3690 h1        1 MOL      0.364550
    173 H82        -3.7550   -2.8960    0.5630 hc        1 MOL      0.135962
    174 H83        -2.3090   -2.2860   -0.3610 hc        1 MOL      0.135962
    175 H84        -3.5680   -4.9050   -0.1260 hc        1 MOL      0.046008
    176 H85        -1.8980   -4.4600    0.0670 hc        1 MOL      0.046008
    177 N15        -5.9380   -3.8260   -2.2820 n         1 MOL     -0.148555
    178 C54        -7.2030   -4.5160   -2.4970 c3        1 MOL     -0.136640
    179 H86        -7.9370   -4.1610   -1.7730 h1        1 MOL      0.065785
    180 H87        -7.5610   -4.3150   -3.5060 h1        1 MOL      0.065785
    181 H88        -7.0580   -5.5890   -2.3690 h1        1 MOL      0.065785
    182 H89        -5.3190   -3.7930   -3.0770 hn        1 MOL      0.257956
    183 Ca1         0.8150   -4.8150   -3.1930 Ca        1 MOL      1.627654
    184 O25         1.5820   -3.4010   -5.5220 oh        1 MOL     -0.836809
    185 H90         0.9160   -3.3880   -6.2100 ho        1 MOL      0.423608
    186 H91         2.4230   -3.3170   -5.9920 ho        1 MOL      0.423608
    187 O26         3.0890   -6.2900   -4.5120 oh        1 MOL     -0.836809
    188 H92         3.8170   -5.8690   -4.0560 ho        1 MOL      0.423608
    189 H93         3.4900   -7.0710   -4.9140 ho        1 MOL      0.423608
    190 O27        -0.3410   -6.1240   -5.2970 oh        1 MOL     -0.836809
    191 H94        -0.9180   -5.9360   -6.0340 ho        1 MOL      0.423608
    192 H95        -0.6320   -6.9880   -4.9900 ho        1 MOL      0.423608
@<TRIPOS>BOND
     1    1    2 1   
     2    1    4 1   
     3    1    5 1   
     4    1    6 1   
     5    2    3 2   
     6    2    7 1   
     7    7    8 1   
     8    7   15 1   
     9    8    9 1   
    10    8   11 1   
    11    8   16 1   
    12    9   10 2   
    13    9   19 1   
    14   11   12 1   
    15   11   17 1   
    16   11   18 1   
    17   12   13 1   
    18   12   14 1   
    19   19   20 1   
    20   19   28 1   
    21   20   21 1   
    22   20   23 1   
    23   20   29 1   
    24   21   22 2   
    25   21   41 1   
    26   23   24 1   
    27   23   30 1   
    28   23   31 1   
    29   24   25 1   
    30   24   32 1   
    31   24   33 1   
    32   25   26 1   
    33   25   34 1   
    34   25   35 1   
    35   26   27 1   
    36   26   36 1   
    37   26   37 1   
    38   27   38 1   
    39   27   39 1   
    40   27   40 1   
    41   41   42 1   
    42   41   49 1   
    43   42   43 1   
    44   42   45 1   
    45   42   50 1   
    46   43   44 2   
    47   43   53 1   
    48   45   46 1   
    49   45   51 1   
    50   45   52 1   
    51   46   47 1   
    52   46   48 1   
    53   53   54 1   
    54   53   57 1   
    55   54   55 1   
    56   54   58 1   
    57   54   59 1   
    58   55   56 2   
    59   55   60 1   
    60   60   61 1   
    61   60   68 1   
    62   61   62 1   
    63   61   64 1   
    64   61   69 1   
    65   62   63 2   
    66   62   72 1   
    67   64   65 1   
    68   64   70 1   
    69   64   71 1   
    70   65   66 1   
    71   65   67 1   
    72   72   73 1   
    73   72   76 1   
    74   73   74 1   
    75   73   77 1   
    76   73   78 1   
    77   74   75 2   
    78   74   79 1   
    79   79   80 1   
    80   79   86 1   
    81   80   81 1   
    82   80   83 1   
    83   80   87 1   
    84   81   82 2   
    85   81   93 1   
    86   83   84 1   
    87   83   85 1   
    88   83   88 1   
    89   84   90 1   
    90   84   91 1   
    91   84   92 1   
    92   85   89 1   
    93   93   94 1   
    94   93  101 1   
    95   94   95 1   
    96   94   97 1   
    97   94  102 1   
    98   95   96 2   
    99   95  112 1   
   100   97   98 1   
   101   97   99 1   
   102   97  103 1   
   103   98  100 1   
   104   98  104 1   
   105   98  105 1   
   106   99  106 1   
   107   99  107 1   
   108   99  108 1   
   109  100  109 1   
   110  100  110 1   
   111  100  111 1   
   112  112  113 1   
   113  112  119 1   
   114  113  114 1   
   115  113  116 1   
   116  113  120 1   
   117  114  115 2   
   118  114  126 1   
   119  116  117 1   
   120  116  118 1   
   121  116  121 1   
   122  117  123 1   
   123  117  124 1   
   124  117  125 1   
   125  118  122 1   
   126  126  127 1   
   127  126  133 1   
   128  127  128 1   
   129  127  130 1   
   130  127  134 1   
   131  128  129 2   
   132  128  140 1   
   133  130  131 1   
   134  130  132 1   
   135  130  135 1   
   136  131  137 1   
   137  131  138 1   
   138  131  139 1   
   139  132  136 1   
   140  140  141 1   
   141  140  149 1   
   142  141  142 1   
   143  141  144 1   
   144  141  150 1   
   145  142  143 2   
   146  142  162 1   
   147  144  145 1   
   148  144  151 1   
   149  144  152 1   
   150  145  146 1   
   151  145  153 1   
   152  145  154 1   
   153  146  147 1   
   154  146  155 1   
   155  146  156 1   
   156  147  148 1   
   157  147  157 1   
   158  147  158 1   
   159  148  159 1   
   160  148  160 1   
   161  148  161 1   
   162  162  163 1   
   163  162  171 1   
   164  163  164 1   
   165  163  166 1   
   166  163  172 1   
   167  164  165 2   
   168  164  177 1   
   169  166  167 1   
   170  166  173 1   
   171  166  174 1   
   172  167  168 1   
   173  167  175 1   
   174  167  176 1   
   175  168  169 1   
   176  168  170 1   
   177  177  178 1   
   178  177  182 1   
   179  178  179 1   
   180  178  180 1   
   181  178  181 1   
   182  184  185 1   
   183  184  186 1   
   184  187  188 1   
   185  187  189 1   
   186  190  191 1   
   187  190  192 1   
@<TRIPOS>SUBSTRUCTURE
     1 MOL         1 TEMP              0 ****  ****    0 ROOT
