@<TRIPOS>MOLECULE
MOL
  192   187     1     0     0
SMALL
resp


@<TRIPOS>ATOM
      1 C1         -1.4220    7.0290    2.7750 c3        1 MOL     -0.304199
      2 C2         -1.5450    5.5500    2.3020 c         1 MOL      0.755206
      3 O1         -1.2550    4.6210    3.0690 o         1 MOL     -0.659667
      4 H1         -1.0000    7.0540    3.7790 hc        1 MOL      0.067768
      5 H2         -0.7700    7.5760    2.0930 hc        1 MOL      0.067768
      6 H3         -2.4090    7.4910    2.7840 hc        1 MOL      0.067768
      7 N1         -2.0500    5.3530    1.1350 n         1 MOL     -0.471655
      8 C3         -2.4040    4.0490    0.4850 c3        1 MOL      0.083330
      9 C4         -1.1390    3.2650   -0.0130 c         1 MOL      0.296327
     10 O2         -1.2540    2.1670   -0.5670 o         1 MOL     -0.474583
     11 C5         -3.3120    4.2560   -0.6790 c3        1 MOL     -0.232552
     12 C6         -2.9110    5.2820   -1.7280 c         1 MOL      0.755480
     13 O3         -2.6990    4.8350   -2.8920 o         1 MOL     -0.724742
     14 O4         -2.7670    6.4550   -1.3920 o         1 MOL     -0.724742
     15 H4         -2.1000    6.1200    0.4830 hn        1 MOL      0.279004
     16 H5         -2.9450    3.5450    1.2800 h1        1 MOL      0.100716
     17 H6         -4.2340    4.6080   -0.2300 hc        1 MOL      0.055122
     18 H7         -3.5050    3.2940   -1.1620 hc        1 MOL      0.055122
     19 N2          0.0660    3.8020    0.2010 n         1 MOL     -0.197554
     20 C7          1.3900    3.5300   -0.4590 c3        1 MOL      0.391639
     21 C8          2.3710    3.2030    0.7090 c         1 MOL      0.652326
     22 O5          2.1960    3.7820    1.7640 o         1 MOL     -0.620282
     23 C9          1.7880    4.7390   -1.3080 c3        1 MOL     -0.367201
     24 C10         0.7240    5.2690   -2.3850 c3        1 MOL      0.417565
     25 C11         1.2370    6.4240   -3.2480 c3        1 MOL     -0.051285
     26 C12         0.2850    6.7810   -4.3750 c3        1 MOL     -0.082438
     27 N3         -1.1570    7.0580   -4.0130 n4        1 MOL     -0.307525
     28 H8          0.0520    4.5860    0.8330 hn        1 MOL      0.141286
     29 H9          1.3500    2.6120   -1.0490 h1        1 MOL      0.016056
     30 H10         2.7300    4.5940   -1.8440 hc        1 MOL      0.040062
     31 H11         1.9510    5.5240   -0.5700 hc        1 MOL      0.040062
     32 H12        -0.1350    5.6350   -1.8100 hc        1 MOL     -0.072717
     33 H13         0.4050    4.4230   -2.9860 hc        1 MOL     -0.072717
     34 H14         2.2150    6.1000   -3.5990 hc        1 MOL      0.025359
     35 H15         1.4140    7.3070   -2.6310 hc        1 MOL      0.025359
     36 H16         0.3420    5.9330   -5.0520 hx        1 MOL      0.095480
     37 H17         0.7000    7.6790   -4.8420 hx        1 MOL      0.095480
     38 H18        -1.2300    7.8620   -3.4010 hn        1 MOL      0.299331
     39 H19        -1.7220    7.2120   -4.8270 hn        1 MOL      0.299331
     40 H20        -1.5430    6.2510   -3.5480 hn        1 MOL      0.299331
     41 N4          3.2940    2.2150    0.6920 n         1 MOL     -0.688981
     42 C13         3.6790    1.2780   -0.4130 c3        1 MOL     -0.021371
     43 C14         4.0050    1.9410   -1.7560 c         1 MOL      0.452362
     44 O6          3.3730    1.6560   -2.7740 o         1 MOL     -0.531371
     45 C15         2.4790    0.1960   -0.4280 c3        1 MOL     -0.112501
     46 C16         1.9560   -0.3050    0.9160 c         1 MOL      0.567149
     47 O7          2.6920   -0.3570    1.9130 o         1 MOL     -0.712629
     48 O8          0.7950   -0.6470    1.0790 o         1 MOL     -0.712629
     49 H21         3.8720    2.0940    1.5090 hn        1 MOL      0.366180
     50 H22         4.5220    0.7080   -0.0130 h1        1 MOL      0.092536
     51 H23         2.9770   -0.6140   -0.9700 hc        1 MOL      0.091274
     52 H24         1.6550    0.5490   -1.0540 hc        1 MOL      0.091274
     53 N5          5.0010    2.8380   -1.8590 n         1 MOL     -0.378403
     54 C17         6.0510    3.0170   -0.8660 c3        1 MOL      0.035908
     55 C18         7.4300    2.8220   -1.4210 c         1 MOL      0.505052
     56 O9          7.6780    3.0360   -2.6210 o         1 MOL     -0.557691
     57 H25         5.1310    3.2760   -2.7660 hn        1 MOL      0.299111
     58 H26         5.9190    2.4230    0.0400 h1        1 MOL      0.042935
     59 H27         6.0350    4.0480   -0.5260 h1        1 MOL      0.042935
     60 N6          8.4560    2.4780   -0.6290 n         1 MOL     -0.322076
     61 C19         8.4390    2.2760    0.8140 c3        1 MOL     -0.052309
     62 C20         7.8200    0.9190    1.1960 c         1 MOL      0.426869
     63 O10         7.9090    0.5830    2.3500 o         1 MOL     -0.509049
     64 C21         9.9510    2.2560    1.2940 c3        1 MOL     -0.152450
     65 C22        10.8230    1.1780    0.7000 c         1 MOL      0.611535
     66 O11        11.1660    1.1000   -0.4930 o         1 MOL     -0.604073
     67 O12        11.1300    0.2290    1.4830 o         1 MOL     -0.604073
     68 H28         9.3160    2.4160   -1.1520 hn        1 MOL      0.232953
     69 H29         7.8830    3.0830    1.2930 h1        1 MOL      0.074080
     70 H30         9.9210    2.1960    2.3810 hc        1 MOL      0.054557
     71 H31        10.3330    3.2390    1.0070 hc        1 MOL      0.054557
     72 N7          7.2760    0.0930    0.2940 n         1 MOL     -0.041958
     73 C23         6.6570   -1.2320    0.6700 c3        1 MOL     -0.281283
     74 C24         5.9890   -2.0410   -0.3750 c         1 MOL      0.652159
     75 O13         5.7780   -1.5740   -1.4930 o         1 MOL     -0.508724
     76 H32         7.4110    0.2660   -0.7020 hn        1 MOL      0.163390
     77 H33         5.8550   -1.1070    1.3860 h1        1 MOL      0.115212
     78 H34         7.3790   -1.9050    1.1440 h1        1 MOL      0.115212
     79 N8          5.6830   -3.3050   -0.0470 n         1 MOL     -0.550148
     80 C25         4.9380   -4.1990   -0.9490 c3        1 MOL      0.199758
     81 C26         3.4650   -3.9730   -0.7020 c         1 MOL      0.283066
     82 O14         3.0410   -3.5830    0.3830 o         1 MOL     -0.413273
     83 C27         5.2590   -5.7430   -0.7410 c3        1 MOL      0.385898
     84 C28         5.3670   -6.2280    0.7060 c3        1 MOL     -0.349098
     85 O15         6.4460   -6.0620   -1.4390 oh        1 MOL     -0.702777
     86 H35         5.8450   -3.6090    0.9080 hn        1 MOL      0.333298
     87 H36         5.1430   -4.0000   -2.0020 h1        1 MOL      0.081505
     88 H37         4.4930   -6.3630   -1.2050 h1        1 MOL     -0.009158
     89 H38         6.6990   -6.9850   -1.3590 ho        1 MOL      0.427786
     90 H39         6.3690   -6.5890    0.9580 hc        1 MOL      0.086630
     91 H40         5.1900   -5.4240    1.4150 hc        1 MOL      0.086630
     92 H41         4.7450   -7.1230    0.8160 hc        1 MOL      0.086630
     93 N9          2.6740   -4.2990   -1.7530 n         1 MOL     -0.342033
     94 C29         1.2500   -3.8560   -1.9730 c3        1 MOL     -0.276315
     95 C30         0.2910   -4.9780   -1.3050 c         1 MOL      0.710332
     96 O16         0.4730   -6.1380   -1.5740 o         1 MOL     -0.535115
     97 C31         0.8880   -3.4570   -3.3850 c3        1 MOL      0.277541
     98 C32         1.6370   -2.2620   -4.0940 c3        1 MOL     -0.121805
     99 C33        -0.5800   -3.3080   -3.6490 c3        1 MOL     -0.411294
    100 C34         3.0760   -2.0050   -3.8100 c3        1 MOL     -0.207642
    101 H42         3.0410   -4.7580   -2.5750 hn        1 MOL      0.264836
    102 H43         1.1610   -2.8600   -1.5260 h1        1 MOL      0.077953
    103 H44         1.0740   -4.3640   -3.9660 hc        1 MOL     -0.015914
    104 H45         1.0960   -1.3560   -3.8070 hc        1 MOL      0.069656
    105 H46         1.3750   -2.3490   -5.1490 hc        1 MOL      0.069656
    106 H47        -1.1400   -4.2400   -3.5330 hc        1 MOL      0.084002
    107 H48        -1.0640   -2.6470   -2.9460 hc        1 MOL      0.084002
    108 H49        -0.7160   -2.9830   -4.6860 hc        1 MOL      0.084002
    109 H50         3.6820   -2.6870   -4.4010 hc        1 MOL      0.070289
    110 H51         3.3570   -1.0590   -4.2600 hc        1 MOL      0.070289
    111 H52         3.3430   -2.0620   -2.7550 hc        1 MOL      0.070289
    112 N10        -0.7080   -4.5260   -0.5760 n         1 MOL     -0.487641
    113 C35        -1.7130   -5.3520    0.0690 c3        1 MOL      0.032195
    114 C36        -3.1740   -4.9380   -0.2720 c         1 MOL      0.242738
    115 O17        -4.0630   -5.7680    0.0090 o         1 MOL     -0.480499
    116 C37        -1.6280   -5.4070    1.6400 c3        1 MOL      0.444651
    117 C38        -2.0710   -4.1850    2.4050 c3        1 MOL     -0.228715
    118 O18        -0.2400   -5.6590    1.9730 oh        1 MOL     -0.617810
    119 H53        -0.8820   -3.5400   -0.5460 hn        1 MOL      0.384389
    120 H54        -1.5380   -6.3820   -0.2420 h1        1 MOL      0.106472
    121 H55        -2.2270   -6.2290    2.0320 h1        1 MOL     -0.010665
    122 H56        -0.2800   -5.5740    2.9300 ho        1 MOL      0.331015
    123 H57        -3.1010   -3.8920    2.2090 hc        1 MOL      0.040196
    124 H58        -1.9160   -4.4150    3.4630 hc        1 MOL      0.040196
    125 H59        -1.3930   -3.4280    2.0230 hc        1 MOL      0.040196
    126 N11        -3.4310   -3.8240   -0.9770 n         1 MOL     -0.156937
    127 C39        -4.7080   -3.3830   -1.4640 c3        1 MOL     -0.099936
    128 C40        -5.6200   -2.8210   -0.3540 c         1 MOL      0.481449
    129 O19        -5.3150   -2.9590    0.8570 o         1 MOL     -0.457419
    130 C41        -5.4390   -4.3010   -2.3920 c3        1 MOL      0.393727
    131 C42        -4.5620   -5.1220   -3.3790 c3        1 MOL     -0.323728
    132 O20        -6.4100   -3.5100   -3.1600 oh        1 MOL     -0.643935
    133 H60        -2.6910   -3.1450   -1.0730 hn        1 MOL      0.209194
    134 H61        -4.4840   -2.5500   -2.1250 h1        1 MOL      0.098874
    135 H62        -5.9850   -5.0480   -1.8240 h1        1 MOL      0.018084
    136 H63        -7.0980   -4.1320   -3.3900 ho        1 MOL      0.391261
    137 H64        -3.6290   -5.5140   -2.9780 hc        1 MOL      0.089907
    138 H65        -5.1560   -5.8970   -3.8590 hc        1 MOL      0.089907
    139 H66        -4.1820   -4.4060   -4.1100 hc        1 MOL      0.089907
    140 N12        -6.7140   -2.1410   -0.7120 n         1 MOL     -0.441954
    141 C43        -7.8090   -1.7410    0.2490 c3        1 MOL     -0.059836
    142 C44        -7.4320   -0.7210    1.3040 c         1 MOL      0.437032
    143 O21        -8.2290   -0.5530    2.2610 o         1 MOL     -0.524411
    144 C45        -9.0580   -1.3350   -0.5420 c3        1 MOL     -0.043407
    145 C46        -9.0360    0.0380   -1.2220 c3        1 MOL      0.060177
    146 C47       -10.2640    0.6350   -1.9390 c3        1 MOL      0.252945
    147 C48       -10.0460    1.9330   -2.7090 c3        1 MOL     -0.196862
    148 N13        -8.9040    1.8930   -3.6360 n4        1 MOL     -0.127591
    149 H67        -6.9090   -2.0890   -1.6960 hn        1 MOL      0.252121
    150 H68        -8.0680   -2.6460    0.7940 h1        1 MOL      0.166518
    151 H69        -9.9410   -1.4640    0.0890 hc        1 MOL      0.027051
    152 H70        -9.2800   -2.0660   -1.3150 hc        1 MOL      0.027051
    153 H71        -8.2170    0.0530   -1.9420 hc        1 MOL     -0.034478
    154 H72        -8.7440    0.8290   -0.5230 hc        1 MOL     -0.034478
    155 H73       -11.0760    0.7570   -1.2210 hc        1 MOL     -0.042337
    156 H74       -10.5610   -0.0830   -2.7090 hc        1 MOL     -0.042337
    157 H75        -9.8680    2.7090   -1.9540 hx        1 MOL      0.135247
    158 H76       -10.9700    2.1520   -3.2370 hx        1 MOL      0.135247
    159 H77        -8.9620    1.1920   -4.3580 hn        1 MOL      0.218806
    160 H78        -8.8910    2.7650   -4.1400 hn        1 MOL      0.218806
    161 H79        -7.9820    1.7410   -3.2520 hn        1 MOL      0.218806
    162 N14        -6.2430   -0.1140    1.1530 n         1 MOL     -0.129065
    163 C49        -5.6330    0.7760    2.1360 c3        1 MOL     -0.339023
    164 C50        -6.4460    2.0840    2.3860 c         1 MOL      0.469146
    165 O22        -6.2010    3.1420    1.7820 o         1 MOL     -0.541744
    166 C51        -4.2400    1.0610    1.5940 c3        1 MOL      0.308030
    167 C52        -3.2210   -0.0800    1.6230 c3        1 MOL     -0.118808
    168 C53        -2.8560   -0.6020    2.9670 c         1 MOL      0.761254
    169 O23        -1.7650   -0.3410    3.4850 o         1 MOL     -0.774792
    170 O24        -3.7110   -1.1040    3.7460 o         1 MOL     -0.774792
    171 H80        -5.8680   -0.0820    0.2150 hn        1 MOL      0.196999
    172 H81        -5.4890    0.3080    3.1110 h1        1 MOL      0.236753
    173 H82        -3.9710    1.8840    2.2610 hc        1 MOL     -0.004605
    174 H83        -4.2690    1.3220    0.5330 hc        1 MOL     -0.004605
    175 H84        -2.2880    0.2580    1.1770 hc        1 MOL     -0.040445
    176 H85        -3.4690   -0.9340    0.9900 hc        1 MOL     -0.040445
    177 N15        -7.3190    1.9670    3.3230 n         1 MOL     -0.249159
    178 C54        -8.1820    3.0830    3.7070 c3        1 MOL     -0.150642
    179 H86        -8.2680    3.1190    4.7930 h1        1 MOL      0.084224
    180 H87        -7.7500    4.0170    3.3470 h1        1 MOL      0.084224
    181 H88        -9.1700    2.9460    3.2680 h1        1 MOL      0.084224
    182 H89        -7.4900    1.0640    3.7330 hn        1 MOL      0.264491
    183 Ca1         0.8460   -0.8030    3.7940 Ca        1 MOL      1.781108
    184 O25         3.0250   -0.8850    5.4730 oh        1 MOL     -0.935901
    185 H90         3.2360   -0.9020    6.3990 ho        1 MOL      0.460436
    186 H91         3.8630   -0.7370    5.0340 ho        1 MOL      0.460436
    187 O26         0.7690    1.8390    3.5290 oh        1 MOL     -0.935901
    188 H92         1.2660    2.4010    2.9430 ho        1 MOL      0.460436
    189 H93         0.2840    2.4400    4.0920 ho        1 MOL      0.460436
    190 O27         1.6660   -3.3010    2.8480 oh        1 MOL     -0.935901
    191 H94         1.9950   -3.6530    2.0160 ho        1 MOL      0.460436
    192 H95         0.9790   -3.9140    3.1080 ho        1 MOL      0.460436
@<TRIPOS>BOND
     1    1    2 1   
     2    1    4 1   
     3    1    5 1   
     4    1    6 1   
     5    2    3 2   
     6    2    7 1   
     7    7    8 1   
     8    7   15 1   
     9    8    9 1   
    10    8   11 1   
    11    8   16 1   
    12    9   10 2   
    13    9   19 1   
    14   11   12 1   
    15   11   17 1   
    16   11   18 1   
    17   12   13 1   
    18   12   14 1   
    19   19   20 1   
    20   19   28 1   
    21   20   21 1   
    22   20   23 1   
    23   20   29 1   
    24   21   22 2   
    25   21   41 1   
    26   23   24 1   
    27   23   30 1   
    28   23   31 1   
    29   24   25 1   
    30   24   32 1   
    31   24   33 1   
    32   25   26 1   
    33   25   34 1   
    34   25   35 1   
    35   26   27 1   
    36   26   36 1   
    37   26   37 1   
    38   27   38 1   
    39   27   39 1   
    40   27   40 1   
    41   41   42 1   
    42   41   49 1   
    43   42   43 1   
    44   42   45 1   
    45   42   50 1   
    46   43   44 2   
    47   43   53 1   
    48   45   46 1   
    49   45   51 1   
    50   45   52 1   
    51   46   47 1   
    52   46   48 1   
    53   53   54 1   
    54   53   57 1   
    55   54   55 1   
    56   54   58 1   
    57   54   59 1   
    58   55   56 2   
    59   55   60 1   
    60   60   61 1   
    61   60   68 1   
    62   61   62 1   
    63   61   64 1   
    64   61   69 1   
    65   62   63 2   
    66   62   72 1   
    67   64   65 1   
    68   64   70 1   
    69   64   71 1   
    70   65   66 1   
    71   65   67 1   
    72   72   73 1   
    73   72   76 1   
    74   73   74 1   
    75   73   77 1   
    76   73   78 1   
    77   74   75 2   
    78   74   79 1   
    79   79   80 1   
    80   79   86 1   
    81   80   81 1   
    82   80   83 1   
    83   80   87 1   
    84   81   82 2   
    85   81   93 1   
    86   83   84 1   
    87   83   85 1   
    88   83   88 1   
    89   84   90 1   
    90   84   91 1   
    91   84   92 1   
    92   85   89 1   
    93   93   94 1   
    94   93  101 1   
    95   94   95 1   
    96   94   97 1   
    97   94  102 1   
    98   95   96 2   
    99   95  112 1   
   100   97   98 1   
   101   97   99 1   
   102   97  103 1   
   103   98  100 1   
   104   98  104 1   
   105   98  105 1   
   106   99  106 1   
   107   99  107 1   
   108   99  108 1   
   109  100  109 1   
   110  100  110 1   
   111  100  111 1   
   112  112  113 1   
   113  112  119 1   
   114  113  114 1   
   115  113  116 1   
   116  113  120 1   
   117  114  115 2   
   118  114  126 1   
   119  116  117 1   
   120  116  118 1   
   121  116  121 1   
   122  117  123 1   
   123  117  124 1   
   124  117  125 1   
   125  118  122 1   
   126  126  127 1   
   127  126  133 1   
   128  127  128 1   
   129  127  130 1   
   130  127  134 1   
   131  128  129 2   
   132  128  140 1   
   133  130  131 1   
   134  130  132 1   
   135  130  135 1   
   136  131  137 1   
   137  131  138 1   
   138  131  139 1   
   139  132  136 1   
   140  140  141 1   
   141  140  149 1   
   142  141  142 1   
   143  141  144 1   
   144  141  150 1   
   145  142  143 2   
   146  142  162 1   
   147  144  145 1   
   148  144  151 1   
   149  144  152 1   
   150  145  146 1   
   151  145  153 1   
   152  145  154 1   
   153  146  147 1   
   154  146  155 1   
   155  146  156 1   
   156  147  148 1   
   157  147  157 1   
   158  147  158 1   
   159  148  159 1   
   160  148  160 1   
   161  148  161 1   
   162  162  163 1   
   163  162  171 1   
   164  163  164 1   
   165  163  166 1   
   166  163  172 1   
   167  164  165 2   
   168  164  177 1   
   169  166  167 1   
   170  166  173 1   
   171  166  174 1   
   172  167  168 1   
   173  167  175 1   
   174  167  176 1   
   175  168  169 1   
   176  168  170 1   
   177  177  178 1   
   178  177  182 1   
   179  178  179 1   
   180  178  180 1   
   181  178  181 1   
   182  184  185 1   
   183  184  186 1   
   184  187  188 1   
   185  187  189 1   
   186  190  191 1   
   187  190  192 1   
@<TRIPOS>SUBSTRUCTURE
     1 MOL         1 TEMP              0 ****  ****    0 ROOT
