@<TRIPOS>MOLECULE
MOL
  178   175     1     0     0
SMALL
resp


@<TRIPOS>ATOM
      1 C1          3.7120   -1.4380    4.2850 c3        1 MOL     -0.364511
      2 C2          4.7470   -0.3760    3.8570 c         1 MOL      0.604165
      3 O1          4.5160    0.7840    3.7370 o         1 MOL     -0.611398
      4 H1          3.1940   -1.8140    3.4040 hc        1 MOL      0.088403
      5 H2          4.2210   -2.2610    4.7870 hc        1 MOL      0.088403
      6 H3          2.9890   -0.9880    4.9660 hc        1 MOL      0.088403
      7 N1          5.9040   -0.8240    3.4500 n         1 MOL     -0.524166
      8 C3          7.0190   -0.0480    2.8160 c3        1 MOL      0.410905
      9 C4          6.8740    0.0140    1.2210 c         1 MOL      0.594883
     10 O2          6.1840   -0.8280    0.6880 o         1 MOL     -0.514465
     11 C5          8.3960   -0.7460    3.1390 c3        1 MOL     -0.407944
     12 C6          8.4570   -2.2630    3.1020 c         1 MOL      0.791188
     13 O3          9.6470   -2.7590    2.9540 o         1 MOL     -0.721743
     14 O4          7.4650   -2.9780    3.0120 o         1 MOL     -0.721743
     15 H4          6.1250   -1.8110    3.5130 hn        1 MOL      0.266455
     16 H5          6.9400    0.9710    3.1890 h1        1 MOL     -0.040549
     17 H6          8.4300   -0.4930    4.2010 hc        1 MOL      0.059193
     18 H7          9.2350   -0.3300    2.5620 hc        1 MOL      0.059193
     19 N2          7.4480    1.0390    0.5790 n         1 MOL     -0.817733
     20 C7          7.2400    1.2630   -0.8920 c3        1 MOL      0.756570
     21 C8          6.1020    2.2750   -1.1800 c         1 MOL      0.316979
     22 O5          5.7250    3.1060   -0.3580 o         1 MOL     -0.495444
     23 C9          8.5440    1.7530   -1.4850 c3        1 MOL     -0.151612
     24 H8          7.9450    1.7670    1.0790 hn        1 MOL      0.324696
     25 H9          6.8940    0.3600   -1.3980 h1        1 MOL     -0.160247
     26 H10         8.8730    2.6010   -0.8890 hc        1 MOL      0.014278
     27 H11         9.3170    0.9850   -1.4410 hc        1 MOL      0.014278
     28 H12         8.3370    2.0750   -2.5050 hc        1 MOL      0.014278
     29 N3          5.6790    2.2470   -2.4860 n         1 MOL     -0.447517
     30 C10         4.2520    2.4890   -2.9120 c3        1 MOL     -0.024457
     31 C11         4.0440    3.8970   -3.3710 c         1 MOL      0.746034
     32 O6          4.9500    4.5200   -3.9690 o         1 MOL     -0.604769
     33 C12         3.7190    1.4470   -3.9430 c3        1 MOL     -0.477102
     34 C13         4.0460    0.0020   -3.4290 c         1 MOL      0.810429
     35 O7          3.6180   -0.4160   -2.3160 o         1 MOL     -0.700377
     36 O8          4.8590   -0.6810   -4.0860 o         1 MOL     -0.700377
     37 H13         6.1560    1.6810   -3.1700 hn        1 MOL      0.317825
     38 H14         3.6570    2.4690   -2.0000 h1        1 MOL      0.075139
     39 H15         4.2050    1.5870   -4.9100 hc        1 MOL      0.115369
     40 H16         2.6540    1.5450   -4.1630 hc        1 MOL      0.115369
     41 N4          2.9240    4.5480   -3.1830 n         1 MOL     -0.435667
     42 C14         2.7900    5.9680   -3.4450 c3        1 MOL     -0.144803
     43 C15         1.4080    6.5280   -2.9180 c         1 MOL      0.625560
     44 O9          1.2570    7.7560   -2.8410 o         1 MOL     -0.588819
     45 H17         2.1410    4.0200   -2.8290 hn        1 MOL      0.231071
     46 H18         2.8340    6.1470   -4.5260 h1        1 MOL      0.105107
     47 H19         3.5860    6.5120   -2.9280 h1        1 MOL      0.105107
     48 N5          0.3850    5.7500   -2.6780 n         1 MOL     -0.456378
     49 C16        -0.8830    6.1180   -2.1280 c3        1 MOL      0.079259
     50 C17        -1.1040    5.6450   -0.6530 c         1 MOL      0.543777
     51 O10        -0.6950    4.6050   -0.3280 o         1 MOL     -0.465304
     52 C18        -2.0260    5.4030   -2.9930 c3        1 MOL     -0.195400
     53 C19        -2.1960    5.8230   -4.4540 c         1 MOL      0.637515
     54 N6         -3.2300    5.2860   -5.0620 n         1 MOL     -0.783469
     55 O11        -1.5330    6.6730   -5.0110 o         1 MOL     -0.524834
     56 H20         0.5460    4.7560   -2.6640 hn        1 MOL      0.291629
     57 H21        -1.0540    7.1920   -2.0810 h1        1 MOL      0.059172
     58 H22        -2.8550    5.8120   -2.4290 hc        1 MOL      0.069645
     59 H23        -1.9660    4.3130   -2.8960 hc        1 MOL      0.069645
     60 H24        -3.8760    4.6690   -4.5840 hn        1 MOL      0.352714
     61 H25        -3.3620    5.5630   -6.0250 hn        1 MOL      0.352714
     62 N7         -1.7880    6.4910    0.0910 n         1 MOL     -0.456250
     63 C20        -2.1210    6.2380    1.5010 c3        1 MOL     -0.153164
     64 C21        -3.3710    5.3100    1.6780 c         1 MOL      0.668017
     65 O12        -3.8590    4.8240    0.6710 o         1 MOL     -0.511835
     66 H26        -2.0610    7.3870   -0.3110 hn        1 MOL      0.312979
     67 H27        -2.2940    7.2320    1.9280 h1        1 MOL      0.098389
     68 H28        -1.3640    5.8030    2.1600 h1        1 MOL      0.098389
     69 N8         -3.7480    5.1060    2.9010 n         1 MOL     -0.601379
     70 C22        -5.0080    4.3910    3.2810 c3        1 MOL     -0.127365
     71 C23        -4.8030    2.8780    3.4390 c         1 MOL      0.525166
     72 O13        -5.7780    2.1330    3.1670 o         1 MOL     -0.581949
     73 C24        -5.7280    4.9960    4.5740 c3        1 MOL      0.434715
     74 C25        -5.1140    4.6390    5.9290 c3        1 MOL     -0.431924
     75 O14        -5.9240    6.3730    4.5140 oh        1 MOL     -0.610872
     76 H29        -3.1540    5.3660    3.6720 hn        1 MOL      0.308164
     77 H30        -5.7190    4.6500    2.4990 h1        1 MOL      0.136095
     78 H31        -6.7600    4.6560    4.5390 h1        1 MOL      0.044332
     79 H32        -5.0790    6.8200    4.5680 ho        1 MOL      0.368882
     80 H33        -5.7350    4.8930    6.7850 hc        1 MOL      0.108530
     81 H34        -5.0910    3.5460    5.9680 hc        1 MOL      0.108530
     82 H35        -4.0900    5.0080    6.0250 hc        1 MOL      0.108530
     83 N9         -3.6610    2.3700    3.9420 n         1 MOL     -0.243599
     84 C26        -3.3440    0.9160    3.8670 c3        1 MOL      0.027142
     85 C27        -2.2930    0.7550    2.7660 c         1 MOL      0.418990
     86 O15        -1.3850    1.5670    2.5800 o         1 MOL     -0.522820
     87 C28        -2.9550    0.3780    5.2880 c3        1 MOL      0.196295
     88 C29        -3.9810    0.6860    6.3790 c3        1 MOL     -0.107794
     89 C30        -2.5960   -1.1310    5.1700 c3        1 MOL     -0.159011
     90 C31        -5.4100    0.3510    6.0180 c3        1 MOL      0.060525
     91 H36        -2.9340    2.9800    4.3020 hn        1 MOL      0.213180
     92 H37        -4.2400    0.3750    3.5340 h1        1 MOL      0.072271
     93 H38        -2.0730    0.9200    5.6310 hc        1 MOL     -0.012480
     94 H39        -3.8890    1.7270    6.7060 hc        1 MOL      0.003696
     95 H40        -3.7270    0.0390    7.2150 hc        1 MOL      0.003696
     96 H41        -2.5070   -1.5450    6.1740 hc        1 MOL      0.037085
     97 H42        -3.4680   -1.6380    4.7870 hc        1 MOL      0.037085
     98 H43        -1.7280   -1.3650    4.5460 hc        1 MOL      0.037085
     99 H44        -5.7200    1.1390    5.3270 hc        1 MOL     -0.018919
    100 H45        -5.5210   -0.6090    5.5130 hc        1 MOL     -0.018919
    101 H46        -6.1470    0.4270    6.8170 hc        1 MOL     -0.018919
    102 N10        -2.3930   -0.3400    2.0280 n         1 MOL     -0.305621
    103 C32        -1.4060   -0.8360    1.0360 c3        1 MOL      0.162012
    104 C33        -2.1040   -1.4670   -0.1750 c         1 MOL      0.553010
    105 O16        -1.5710   -2.2950   -0.8330 o         1 MOL     -0.443575
    106 C34        -0.3580   -1.7190    1.7400 c3        1 MOL     -0.241513
    107 C35         1.0310   -1.6800    1.0390 c         1 MOL      0.849837
    108 O17         1.3180   -0.9820    0.0640 o         1 MOL     -0.779144
    109 O18         1.9110   -2.4910    1.3990 o         1 MOL     -0.779144
    110 H47        -3.2000   -0.9080    2.2520 hn        1 MOL      0.193431
    111 H48        -1.0420    0.0210    0.4710 h1        1 MOL      0.077278
    112 H49        -0.7040   -2.7530    1.6630 hc        1 MOL      0.052937
    113 H50        -0.3040   -1.4100    2.7820 hc        1 MOL      0.052937
    114 N11        -3.3560   -1.0830   -0.3750 n         1 MOL     -0.563486
    115 C36        -4.2920   -1.6570   -1.3070 c3        1 MOL      0.372401
    116 C37        -4.3380   -3.2120   -1.2510 c         1 MOL      0.200128
    117 O19        -4.4560   -3.7800   -0.1410 o         1 MOL     -0.482972
    118 C38        -5.7490   -1.1010   -1.2380 c3        1 MOL     -0.236999
    119 C39        -6.6090   -1.4920   -2.4120 ca        1 MOL      0.215938
    120 C40        -7.7660   -2.2310   -2.2460 ca        1 MOL     -0.234570
    121 C41        -6.2820   -0.9820   -3.6490 ca        1 MOL     -0.234570
    122 C42        -8.5950   -2.4980   -3.3690 ca        1 MOL     -0.064472
    123 C43        -7.1400   -1.1950   -4.7610 ca        1 MOL     -0.064472
    124 C44        -8.3380   -1.8520   -4.6230 ca        1 MOL     -0.165732
    125 H51        -3.6960   -0.3690    0.2640 hn        1 MOL      0.250214
    126 H52        -3.9630   -1.3850   -2.3070 h1        1 MOL     -0.017358
    127 H53        -5.7030   -0.0250   -1.1200 hc        1 MOL      0.079728
    128 H54        -6.1760   -1.5610   -0.3470 hc        1 MOL      0.079728
    129 H55        -7.9720   -2.7110   -1.3020 ha        1 MOL      0.137374
    130 H56        -5.3520   -0.4370   -3.7480 ha        1 MOL      0.137374
    131 H57        -9.4600   -3.1430   -3.3040 ha        1 MOL      0.099474
    132 H58        -6.7960   -0.8110   -5.7100 ha        1 MOL      0.099474
    133 H59        -9.0830   -1.8740   -5.4070 ha        1 MOL      0.117904
    134 N12        -4.1550   -3.9680   -2.3350 n         1 MOL      0.050228
    135 C45        -4.2680   -5.3930   -2.3850 c3        1 MOL      0.005024
    136 C46        -3.1610   -6.2040   -1.6730 c         1 MOL      0.322234
    137 O20        -3.2550   -7.4390   -1.6020 o         1 MOL     -0.502402
    138 C47        -4.2280   -5.7240   -3.8710 c3        1 MOL     -0.102388
    139 C48        -3.3060   -4.6550   -4.4750 c3        1 MOL      0.114996
    140 C49        -3.8350   -3.4720   -3.7130 c3        1 MOL     -0.449863
    141 H60        -5.2350   -5.6870   -1.9720 h1        1 MOL      0.078820
    142 H61        -3.9160   -6.7420   -4.1220 hc        1 MOL      0.050719
    143 H62        -5.2400   -5.6020   -4.2630 hc        1 MOL      0.050719
    144 H63        -2.2520   -4.8030   -4.2250 hc        1 MOL      0.024583
    145 H64        -3.2630   -4.6690   -5.5670 hc        1 MOL      0.024583
    146 H65        -2.9900   -2.7960   -3.6380 h1        1 MOL      0.153379
    147 H66        -4.6480   -2.9950   -4.2690 h1        1 MOL      0.153379
    148 N13        -2.0110   -5.5800   -1.2690 n         1 MOL     -0.211739
    149 C50        -0.9910   -6.2610   -0.4520 c3        1 MOL     -0.100925
    150 C51        -1.4340   -6.5360    0.9520 c         1 MOL      0.365602
    151 O21        -0.8380   -7.3790    1.6430 o         1 MOL     -0.548673
    152 C52         0.2090   -5.3060   -0.3370 c3        1 MOL      0.285424
    153 C53         1.1170   -5.3860   -1.5020 c3        1 MOL     -0.386308
    154 C54         2.3380   -4.4270   -1.4170 c         1 MOL      0.891542
    155 O22         2.3370   -3.4200   -2.1380 o         1 MOL     -0.778205
    156 O23         3.3280   -4.6550   -0.7050 o         1 MOL     -0.778205
    157 H67        -1.8120   -4.6130   -1.4870 hn        1 MOL      0.264004
    158 H68        -0.5580   -7.1640   -0.8770 h1        1 MOL      0.115343
    159 H69         0.9310   -5.5310    0.4450 hc        1 MOL     -0.028677
    160 H70        -0.1420   -4.2900   -0.1640 hc        1 MOL     -0.028677
    161 H71         0.5500   -5.1360   -2.3990 hc        1 MOL      0.040126
    162 H72         1.4300   -6.4270   -1.4730 hc        1 MOL      0.040126
    163 N14        -2.4820   -5.8880    1.3670 n         1 MOL     -0.059934
    164 C55        -2.8910   -5.9610    2.8230 c3        1 MOL     -0.318818
    165 H73        -3.5040   -6.8480    2.9830 h1        1 MOL      0.115431
    166 H74        -2.0010   -6.0160    3.4490 h1        1 MOL      0.115431
    167 H75        -3.4650   -5.0720    3.0840 h1        1 MOL      0.115431
    168 H76        -2.9670   -5.3140    0.6900 hn        1 MOL      0.130334
    169 Ca1         3.6860   -1.9120   -0.2720 Ca        1 MOL      1.746682
    170 O24         3.5500    0.6050    0.6980 oh        1 MOL     -0.849021
    171 H77         4.2430    1.2340    0.8690 ho        1 MOL      0.417515
    172 H78         2.7430    1.0840    0.8630 ho        1 MOL      0.417515
    173 O25         6.1330   -2.5930   -1.6490 oh        1 MOL     -0.849021
    174 H79         6.9130   -2.4320   -1.1160 ho        1 MOL      0.417515
    175 H80         6.4350   -2.5240   -2.5500 ho        1 MOL      0.417515
    176 O26         5.1280   -3.2180    1.6040 oh        1 MOL     -0.849021
    177 H81         6.0310   -3.0770    1.8730 ho        1 MOL      0.417515
    178 H82         4.7920   -3.9000    2.1900 ho        1 MOL      0.417515
@<TRIPOS>BOND
     1    1    2 1   
     2    1    4 1   
     3    1    5 1   
     4    1    6 1   
     5    2    3 2   
     6    2    7 1   
     7    7    8 1   
     8    7   15 1   
     9    8    9 1   
    10    8   11 1   
    11    8   16 1   
    12    9   10 2   
    13    9   19 1   
    14   11   12 1   
    15   11   17 1   
    16   11   18 1   
    17   12   13 1   
    18   12   14 1   
    19   19   20 1   
    20   19   24 1   
    21   20   21 1   
    22   20   23 1   
    23   20   25 1   
    24   21   22 2   
    25   21   29 1   
    26   23   26 1   
    27   23   27 1   
    28   23   28 1   
    29   29   30 1   
    30   29   37 1   
    31   30   31 1   
    32   30   33 1   
    33   30   38 1   
    34   31   32 2   
    35   31   41 1   
    36   33   34 1   
    37   33   39 1   
    38   33   40 1   
    39   34   35 1   
    40   34   36 1   
    41   41   42 1   
    42   41   45 1   
    43   42   43 1   
    44   42   46 1   
    45   42   47 1   
    46   43   44 2   
    47   43   48 1   
    48   48   49 1   
    49   48   56 1   
    50   49   50 1   
    51   49   52 1   
    52   49   57 1   
    53   50   51 2   
    54   50   62 1   
    55   52   53 1   
    56   52   58 1   
    57   52   59 1   
    58   53   54 1   
    59   53   55 2   
    60   54   60 1   
    61   54   61 1   
    62   62   63 1   
    63   62   66 1   
    64   63   64 1   
    65   63   67 1   
    66   63   68 1   
    67   64   65 2   
    68   64   69 1   
    69   69   70 1   
    70   69   76 1   
    71   70   71 1   
    72   70   73 1   
    73   70   77 1   
    74   71   72 2   
    75   71   83 1   
    76   73   74 1   
    77   73   75 1   
    78   73   78 1   
    79   74   80 1   
    80   74   81 1   
    81   74   82 1   
    82   75   79 1   
    83   83   84 1   
    84   83   91 1   
    85   84   85 1   
    86   84   87 1   
    87   84   92 1   
    88   85   86 2   
    89   85  102 1   
    90   87   88 1   
    91   87   89 1   
    92   87   93 1   
    93   88   90 1   
    94   88   94 1   
    95   88   95 1   
    96   89   96 1   
    97   89   97 1   
    98   89   98 1   
    99   90   99 1   
   100   90  100 1   
   101   90  101 1   
   102  102  103 1   
   103  102  110 1   
   104  103  104 1   
   105  103  106 1   
   106  103  111 1   
   107  104  105 2   
   108  104  114 1   
   109  106  107 1   
   110  106  112 1   
   111  106  113 1   
   112  107  108 1   
   113  107  109 1   
   114  114  115 1   
   115  114  125 1   
   116  115  116 1   
   117  115  118 1   
   118  115  126 1   
   119  116  117 2   
   120  116  134 1   
   121  118  119 1   
   122  118  127 1   
   123  118  128 1   
   124  119  120 ar  
   125  119  121 ar  
   126  120  122 ar  
   127  120  129 1   
   128  121  123 ar  
   129  121  130 1   
   130  122  124 ar  
   131  122  131 1   
   132  123  124 ar  
   133  123  132 1   
   134  124  133 1   
   135  134  135 1   
   136  134  140 1   
   137  135  136 1   
   138  135  138 1   
   139  135  141 1   
   140  136  137 2   
   141  136  148 1   
   142  138  139 1   
   143  138  142 1   
   144  138  143 1   
   145  139  140 1   
   146  139  144 1   
   147  139  145 1   
   148  140  146 1   
   149  140  147 1   
   150  148  149 1   
   151  148  157 1   
   152  149  150 1   
   153  149  152 1   
   154  149  158 1   
   155  150  151 2   
   156  150  163 1   
   157  152  153 1   
   158  152  159 1   
   159  152  160 1   
   160  153  154 1   
   161  153  161 1   
   162  153  162 1   
   163  154  155 1   
   164  154  156 1   
   165  163  164 1   
   166  163  168 1   
   167  164  165 1   
   168  164  166 1   
   169  164  167 1   
   170  170  171 1   
   171  170  172 1   
   172  173  174 1   
   173  173  175 1   
   174  176  177 1   
   175  176  178 1   
@<TRIPOS>SUBSTRUCTURE
     1 MOL         1 TEMP              0 ****  ****    0 ROOT
