@<TRIPOS>MOLECULE
MOL
  192   187     1     0     0
SMALL
resp


@<TRIPOS>ATOM
      1 C1         -6.5850   -2.3970    4.7520 c3        1 MOL     -0.293629
      2 C2         -5.7700   -1.9800    3.5300 c         1 MOL      0.659931
      3 O1         -5.3170   -2.7370    2.6510 o         1 MOL     -0.577338
      4 H1         -7.5930   -2.6660    4.4410 hc        1 MOL      0.082712
      5 H2         -6.1110   -3.2560    5.2300 hc        1 MOL      0.082712
      6 H3         -6.6310   -1.5680    5.4590 hc        1 MOL      0.082712
      7 N1         -5.6980   -0.6740    3.2330 n         1 MOL     -0.414434
      8 C3         -5.3310   -0.0630    1.9680 c3        1 MOL      0.263037
      9 C4         -3.8180   -0.1280    1.7380 c         1 MOL     -0.368481
     10 O2         -3.3980    0.4860    0.7600 o         1 MOL     -0.021792
     11 C5         -5.7890    1.3840    1.8850 c3        1 MOL     -0.097112
     12 C6         -7.2180    1.5970    2.3540 c         1 MOL      0.689228
     13 O3         -8.0070    2.1010    1.5180 o         1 MOL     -0.701368
     14 O4         -7.5180    1.4790    3.5640 o         1 MOL     -0.701368
     15 H4         -5.9720    0.0260    3.9090 hn        1 MOL      0.231271
     16 H5         -5.8530   -0.6920    1.2500 h1        1 MOL      0.113665
     17 H6         -5.7130    1.7500    0.8620 hc        1 MOL     -0.034246
     18 H7         -5.1660    1.9300    2.5860 hc        1 MOL     -0.034246
     19 N2         -2.9840   -0.8160    2.4860 n         1 MOL     -0.005030
     20 C7         -1.5290   -0.7850    2.5930 c3        1 MOL      0.040259
     21 C8         -0.8520   -2.1290    2.1430 c         1 MOL      0.444984
     22 O5         -1.2280   -3.2450    2.4620 o         1 MOL     -0.509707
     23 C9         -1.1550   -0.2390    4.0260 c3        1 MOL     -0.151937
     24 C10        -1.8550    1.0530    4.4830 c3        1 MOL     -0.003856
     25 C11        -1.8270    1.3570    6.0480 c3        1 MOL     -0.164768
     26 C12        -0.3320    1.4810    6.2840 c3        1 MOL      0.166240
     27 N3          0.0680    1.8250    7.6850 n4        1 MOL     -0.430831
     28 H8         -3.4510   -1.4140    3.1520 hn        1 MOL      0.167829
     29 H9         -1.2370   -0.1120    1.7850 h1        1 MOL      0.115488
     30 H10        -0.0830   -0.0110    4.0200 hc        1 MOL      0.047519
     31 H11        -1.3790   -0.9950    4.7870 hc        1 MOL      0.047519
     32 H12        -2.9130    1.0500    4.1990 hc        1 MOL      0.079592
     33 H13        -1.2900    1.8700    4.0380 hc        1 MOL      0.079592
     34 H14        -2.2630    0.5200    6.5790 hc        1 MOL      0.062269
     35 H15        -2.3520    2.2860    6.2710 hc        1 MOL      0.062269
     36 H16        -0.0060    2.2830    5.6260 hx        1 MOL      0.063048
     37 H17         0.1470    0.5270    6.0650 hx        1 MOL      0.063048
     38 H18        -0.6340    2.4340    8.0600 hn        1 MOL      0.340028
     39 H19         0.0580    0.9830    8.2420 hn        1 MOL      0.340028
     40 H20         1.0080    2.1660    7.7700 hn        1 MOL      0.340028
     41 N4          0.2020   -2.1150    1.3760 n         1 MOL     -0.359593
     42 C13         1.0570   -1.0860    0.7380 c3        1 MOL      0.035773
     43 C14         1.5000    0.0200    1.6800 c         1 MOL      0.538998
     44 O6          0.7980    1.0710    1.8330 o         1 MOL     -0.557697
     45 C15         0.4410   -0.6720   -0.5940 c3        1 MOL     -0.362954
     46 C16        -0.0020   -1.7620   -1.5190 c         1 MOL      0.834521
     47 O7          0.7520   -2.7370   -1.7270 o         1 MOL     -0.782684
     48 O8         -0.9990   -1.4410   -2.2510 o         1 MOL     -0.782684
     49 H21         0.5660   -3.0580    1.2740 hn        1 MOL      0.207955
     50 H22         1.8950   -1.6870    0.3790 h1        1 MOL     -0.034280
     51 H23         1.2390   -0.1150   -1.0950 hc        1 MOL      0.149754
     52 H24        -0.4500   -0.0420   -0.4650 hc        1 MOL      0.149754
     53 N5          2.6800   -0.0740    2.2700 n         1 MOL     -0.411629
     54 C17         3.7280   -1.0120    1.9730 c3        1 MOL      0.007811
     55 C18         4.7930   -1.0730    3.0600 c         1 MOL      0.484363
     56 O9          4.8600   -0.1190    3.7930 o         1 MOL     -0.502069
     57 H25         2.7960    0.5380    3.0590 hn        1 MOL      0.264987
     58 H26         4.3240   -0.8980    1.0720 h1        1 MOL      0.119862
     59 H27         3.2010   -1.9590    1.9320 h1        1 MOL      0.119862
     60 N6          5.7210   -2.1170    3.0890 n         1 MOL     -0.554367
     61 C19         5.9010   -3.0980    1.9890 c3        1 MOL      0.145147
     62 C20         6.7720   -2.4910    0.9210 c         1 MOL      0.470583
     63 O10         7.5230   -1.5710    1.2020 o         1 MOL     -0.451382
     64 C21         6.2750   -4.4630    2.4600 c3        1 MOL     -0.241798
     65 C22         7.5820   -4.7070    3.2960 c         1 MOL      0.727204
     66 O11         8.1570   -3.7370    3.8490 o         1 MOL     -0.668947
     67 O12         7.8440   -5.9080    3.5570 o         1 MOL     -0.668947
     68 H28         6.5050   -1.9330    3.7010 hn        1 MOL      0.372161
     69 H29         4.9800   -3.2750    1.4360 h1        1 MOL     -0.037986
     70 H30         6.2480   -5.1310    1.5980 hc        1 MOL      0.030878
     71 H31         5.5320   -4.7680    3.2040 hc        1 MOL      0.030878
     72 N7          6.8010   -3.0390   -0.3210 n         1 MOL     -0.243277
     73 C23         7.5580   -2.5180   -1.4160 c3        1 MOL     -0.496095
     74 C24         7.1170   -1.2270   -2.0730 c         1 MOL      0.585831
     75 O13         7.8230   -0.6140   -2.8520 o         1 MOL     -0.543231
     76 H32         6.1140   -3.7670   -0.4070 hn        1 MOL      0.232580
     77 H33         7.5270   -3.2760   -2.1900 h1        1 MOL      0.206838
     78 H34         8.6030   -2.3780   -1.1100 h1        1 MOL      0.206838
     79 N8          5.8700   -0.8280   -1.7790 n         1 MOL     -0.256011
     80 C25         5.3750    0.5050   -2.1840 c3        1 MOL     -0.077240
     81 C26         5.3570    1.5640   -1.0680 c         1 MOL      0.600210
     82 O14         5.3980    1.2030    0.1470 o         1 MOL     -0.475276
     83 C27         3.8910    0.3960   -2.6790 c3        1 MOL      0.228149
     84 C28         3.7930   -0.5810   -3.8800 c3        1 MOL     -0.176638
     85 O15         3.5470    1.7450   -3.1270 oh        1 MOL     -0.619105
     86 H35         5.3540   -1.3560   -1.0960 hn        1 MOL      0.123465
     87 H36         5.8310    0.8010   -3.1310 h1        1 MOL      0.118516
     88 H37         3.1550    0.1030   -1.9400 h1        1 MOL      0.067931
     89 H38         2.6330    1.7310   -3.4080 ho        1 MOL      0.408455
     90 H39         2.8380   -0.5440   -4.4010 hc        1 MOL      0.047153
     91 H40         4.4560   -0.2870   -4.6930 hc        1 MOL      0.047153
     92 H41         3.9730   -1.6330   -3.6440 hc        1 MOL      0.047153
     93 N9          5.4450    2.8630   -1.3820 n         1 MOL     -0.506639
     94 C29         5.4060    3.9520   -0.4090 c3        1 MOL     -0.081919
     95 C30         4.0060    4.6060   -0.0900 c         1 MOL      0.355393
     96 O16         3.9090    5.6170    0.6190 o         1 MOL     -0.526090
     97 C31         6.4850    4.9950   -0.7140 c3        1 MOL      0.353164
     98 C32         6.4900    5.3900   -2.1990 c3        1 MOL     -0.130542
     99 C33         7.8870    4.4120   -0.3690 c3        1 MOL     -0.429457
    100 C34         5.1670    5.9440   -2.8140 c3        1 MOL     -0.081604
    101 H42         5.3030    3.1450   -2.3480 hn        1 MOL      0.331032
    102 H43         5.7460    3.5840    0.5540 h1        1 MOL      0.126396
    103 H44         6.3370    5.8190   -0.0040 hc        1 MOL     -0.026023
    104 H45         6.7700    4.5000   -2.7640 hc        1 MOL      0.024574
    105 H46         7.3250    6.0840   -2.2200 hc        1 MOL      0.024574
    106 H47         7.8280    3.8390    0.5560 hc        1 MOL      0.112195
    107 H48         8.2510    3.7280   -1.1330 hc        1 MOL      0.112195
    108 H49         8.5940    5.2380   -0.2910 hc        1 MOL      0.112195
    109 H50         4.7880    6.8860   -2.4050 hc        1 MOL      0.028491
    110 H51         5.2120    6.0780   -3.8980 hc        1 MOL      0.028491
    111 H52         4.4110    5.1790   -2.6900 hc        1 MOL      0.028491
    112 N10         2.8980    4.0560   -0.5470 n         1 MOL     -0.006981
    113 C35         1.5620    4.6640   -0.2300 c3        1 MOL     -0.268584
    114 C36         0.4690    3.6480   -0.4980 c         1 MOL      0.567780
    115 O17         0.6280    2.6140   -1.1570 o         1 MOL     -0.468051
    116 C37         1.2310    5.9180   -1.0720 c3        1 MOL      0.386371
    117 C38         1.1150    5.7420   -2.5530 c3        1 MOL     -0.232568
    118 O18         2.0580    6.9600   -0.8330 oh        1 MOL     -0.586559
    119 H53         3.0090    3.1560   -0.9940 hn        1 MOL      0.072913
    120 H54         1.5440    4.8330    0.8510 h1        1 MOL      0.122546
    121 H55         0.2510    6.1780   -0.6650 h1        1 MOL     -0.023600
    122 H56         2.6730    6.6600   -0.1590 ho        1 MOL      0.356192
    123 H57         2.0940    5.8670   -3.0130 hc        1 MOL      0.064634
    124 H58         0.7060    4.7880   -2.8840 hc        1 MOL      0.064634
    125 H59         0.3670    6.4350   -2.9270 hc        1 MOL      0.064634
    126 N11        -0.7430    3.8960    0.0390 n         1 MOL     -0.456700
    127 C39        -1.9450    3.0380   -0.1250 c3        1 MOL      0.061471
    128 C40        -2.4150    2.7940   -1.5690 c         1 MOL      0.246054
    129 O19        -2.2220    3.5500   -2.5570 o         1 MOL     -0.506581
    130 C41        -3.2080    3.4180    0.7390 c3        1 MOL      0.392594
    131 C42        -3.6970    4.8260    0.3350 c3        1 MOL     -0.341106
    132 O20        -2.8940    3.5470    2.0900 oh        1 MOL     -0.628684
    133 H60        -0.7580    4.7510    0.5710 hn        1 MOL      0.286179
    134 H61        -1.6600    2.0580    0.2580 h1        1 MOL      0.066369
    135 H62        -4.0730    2.8120    0.4760 h1        1 MOL      0.121468
    136 H63        -3.6910    3.8730    2.5080 ho        1 MOL      0.382727
    137 H64        -4.0910    4.8450   -0.6880 hc        1 MOL      0.065984
    138 H65        -4.4790    5.1980    1.0090 hc        1 MOL      0.065984
    139 H66        -2.8790    5.5590    0.3640 hc        1 MOL      0.065984
    140 N12        -3.0320    1.6310   -1.7900 n         1 MOL      0.063842
    141 C43        -3.6220    1.1130   -3.0380 c3        1 MOL      0.022596
    142 C44        -4.1670   -0.4130   -2.8930 c         1 MOL      0.600938
    143 O21        -4.6700   -1.0220   -3.9110 o         1 MOL     -0.629190
    144 C45        -4.7770    1.9980   -3.6090 c3        1 MOL     -0.323365
    145 C46        -5.8340    2.1020   -2.5050 c3        1 MOL      0.247276
    146 C47        -6.8420    3.1430   -2.6470 c3        1 MOL      0.013002
    147 C48        -7.4440    3.6570   -1.3100 c3        1 MOL      0.176874
    148 N13        -8.2110    4.8200   -1.5820 n4        1 MOL     -0.484173
    149 H67        -3.2850    1.0680   -1.0000 hn        1 MOL     -0.260153
    150 H68        -2.7880    1.1050   -3.7420 h1        1 MOL      0.113680
    151 H69        -5.2090    1.5550   -4.5050 hc        1 MOL      0.082710
    152 H70        -4.4700    3.0130   -3.8880 hc        1 MOL      0.082710
    153 H71        -5.2830    2.2400   -1.5740 hc        1 MOL     -0.041584
    154 H72        -6.3360    1.1510   -2.3340 hc        1 MOL     -0.041584
    155 H73        -7.6250    2.8240   -3.3320 hc        1 MOL     -0.011237
    156 H74        -6.2610    4.0080   -2.9760 hc        1 MOL     -0.011237
    157 H75        -6.7460    3.8020   -0.4750 hx        1 MOL      0.054219
    158 H76        -8.1080    2.8360   -1.0710 hx        1 MOL      0.054219
    159 H77        -7.7120    5.6730   -1.7820 hn        1 MOL      0.342088
    160 H78        -8.9330    4.6300   -2.2670 hn        1 MOL      0.342088
    161 H79        -8.7210    5.0410   -0.7370 hn        1 MOL      0.342088
    162 N14        -3.8550   -1.0610   -1.7680 n         1 MOL     -0.170076
    163 C49        -4.1210   -2.5350   -1.5770 c3        1 MOL     -0.702856
    164 C50        -5.6180   -2.9260   -1.6460 c         1 MOL      0.701570
    165 O22        -6.4170   -2.4100   -0.8810 o         1 MOL     -0.579433
    166 C51        -3.5400   -2.9440   -0.2390 c3        1 MOL      0.613145
    167 C52        -3.6490   -4.5110   -0.0960 c3        1 MOL     -0.504002
    168 C53        -3.0050   -5.2590   -1.2320 c         1 MOL      0.976001
    169 O23        -1.8160   -5.5140   -1.1980 o         1 MOL     -0.867604
    170 O24        -3.7490   -5.6280   -2.1680 o         1 MOL     -0.867604
    171 H80        -3.5090   -0.5920   -0.9450 hn        1 MOL      0.308911
    172 H81        -3.5770   -3.0340   -2.3790 h1        1 MOL      0.202401
    173 H82        -3.9330   -2.3560    0.5870 hc        1 MOL     -0.114180
    174 H83        -2.4780   -2.6900   -0.1960 hc        1 MOL     -0.114180
    175 H84        -4.7200   -4.7220   -0.0500 hc        1 MOL      0.124055
    176 H85        -3.1480   -4.8080    0.8220 hc        1 MOL      0.124055
    177 N15        -5.9500   -3.7320   -2.5710 n         1 MOL     -0.208631
    178 C54        -7.2960   -4.2260   -2.7640 c3        1 MOL     -0.308987
    179 H86        -7.7130   -3.7960   -3.6750 h1        1 MOL      0.113920
    180 H87        -7.2760   -5.3120   -2.8530 h1        1 MOL      0.113920
    181 H88        -7.9140   -3.9410   -1.9130 h1        1 MOL      0.113920
    182 H89        -5.2660   -4.2540   -3.0940 hn        1 MOL      0.347646
    183 Ca1         0.5110   -5.3080   -2.2370 Ca        1 MOL      1.696107
    184 O25         2.3490   -4.3900   -4.0560 oh        1 MOL     -0.868918
    185 H90         2.1120   -3.6010   -4.5390 ho        1 MOL      0.436849
    186 H91         3.2240   -4.6110   -4.3670 ho        1 MOL      0.436849
    187 O26        -1.0730   -3.7910   -3.6950 oh        1 MOL     -0.868918
    188 H92        -1.7790   -3.6440   -4.3210 ho        1 MOL      0.436849
    189 H93        -1.0630   -3.0030   -3.1460 ho        1 MOL      0.436849
    190 O27        -0.1900   -7.0290   -4.2090 oh        1 MOL     -0.868918
    191 H94        -0.6670   -7.6070   -3.6130 ho        1 MOL      0.436849
    192 H95        -0.4730   -7.3040   -5.0830 ho        1 MOL      0.436849
@<TRIPOS>BOND
     1    1    2 1   
     2    1    4 1   
     3    1    5 1   
     4    1    6 1   
     5    2    3 2   
     6    2    7 1   
     7    7    8 1   
     8    7   15 1   
     9    8    9 1   
    10    8   11 1   
    11    8   16 1   
    12    9   10 2   
    13    9   19 1   
    14   11   12 1   
    15   11   17 1   
    16   11   18 1   
    17   12   13 1   
    18   12   14 1   
    19   19   20 1   
    20   19   28 1   
    21   20   21 1   
    22   20   23 1   
    23   20   29 1   
    24   21   22 2   
    25   21   41 1   
    26   23   24 1   
    27   23   30 1   
    28   23   31 1   
    29   24   25 1   
    30   24   32 1   
    31   24   33 1   
    32   25   26 1   
    33   25   34 1   
    34   25   35 1   
    35   26   27 1   
    36   26   36 1   
    37   26   37 1   
    38   27   38 1   
    39   27   39 1   
    40   27   40 1   
    41   41   42 1   
    42   41   49 1   
    43   42   43 1   
    44   42   45 1   
    45   42   50 1   
    46   43   44 2   
    47   43   53 1   
    48   45   46 1   
    49   45   51 1   
    50   45   52 1   
    51   46   47 1   
    52   46   48 1   
    53   53   54 1   
    54   53   57 1   
    55   54   55 1   
    56   54   58 1   
    57   54   59 1   
    58   55   56 2   
    59   55   60 1   
    60   60   61 1   
    61   60   68 1   
    62   61   62 1   
    63   61   64 1   
    64   61   69 1   
    65   62   63 2   
    66   62   72 1   
    67   64   65 1   
    68   64   70 1   
    69   64   71 1   
    70   65   66 1   
    71   65   67 1   
    72   72   73 1   
    73   72   76 1   
    74   73   74 1   
    75   73   77 1   
    76   73   78 1   
    77   74   75 2   
    78   74   79 1   
    79   79   80 1   
    80   79   86 1   
    81   80   81 1   
    82   80   83 1   
    83   80   87 1   
    84   81   82 2   
    85   81   93 1   
    86   83   84 1   
    87   83   85 1   
    88   83   88 1   
    89   84   90 1   
    90   84   91 1   
    91   84   92 1   
    92   85   89 1   
    93   93   94 1   
    94   93  101 1   
    95   94   95 1   
    96   94   97 1   
    97   94  102 1   
    98   95   96 2   
    99   95  112 1   
   100   97   98 1   
   101   97   99 1   
   102   97  103 1   
   103   98  100 1   
   104   98  104 1   
   105   98  105 1   
   106   99  106 1   
   107   99  107 1   
   108   99  108 1   
   109  100  109 1   
   110  100  110 1   
   111  100  111 1   
   112  112  113 1   
   113  112  119 1   
   114  113  114 1   
   115  113  116 1   
   116  113  120 1   
   117  114  115 2   
   118  114  126 1   
   119  116  117 1   
   120  116  118 1   
   121  116  121 1   
   122  117  123 1   
   123  117  124 1   
   124  117  125 1   
   125  118  122 1   
   126  126  127 1   
   127  126  133 1   
   128  127  128 1   
   129  127  130 1   
   130  127  134 1   
   131  128  129 2   
   132  128  140 1   
   133  130  131 1   
   134  130  132 1   
   135  130  135 1   
   136  131  137 1   
   137  131  138 1   
   138  131  139 1   
   139  132  136 1   
   140  140  141 1   
   141  140  149 1   
   142  141  142 1   
   143  141  144 1   
   144  141  150 1   
   145  142  143 2   
   146  142  162 1   
   147  144  145 1   
   148  144  151 1   
   149  144  152 1   
   150  145  146 1   
   151  145  153 1   
   152  145  154 1   
   153  146  147 1   
   154  146  155 1   
   155  146  156 1   
   156  147  148 1   
   157  147  157 1   
   158  147  158 1   
   159  148  159 1   
   160  148  160 1   
   161  148  161 1   
   162  162  163 1   
   163  162  171 1   
   164  163  164 1   
   165  163  166 1   
   166  163  172 1   
   167  164  165 2   
   168  164  177 1   
   169  166  167 1   
   170  166  173 1   
   171  166  174 1   
   172  167  168 1   
   173  167  175 1   
   174  167  176 1   
   175  168  169 1   
   176  168  170 1   
   177  177  178 1   
   178  177  182 1   
   179  178  179 1   
   180  178  180 1   
   181  178  181 1   
   182  184  185 1   
   183  184  186 1   
   184  187  188 1   
   185  187  189 1   
   186  190  191 1   
   187  190  192 1   
@<TRIPOS>SUBSTRUCTURE
     1 MOL         1 TEMP              0 ****  ****    0 ROOT
