@<TRIPOS>MOLECULE
MOL
  185   180     1     0     0
SMALL
resp


@<TRIPOS>ATOM
      1 C1         -7.5990    0.0800    5.5090 c3        1 MOL     -0.474552
      2 C2         -6.5990    0.0990    4.3120 c         1 MOL      0.607504
      3 O1         -5.4160    0.1040    4.5230 o         1 MOL     -0.568923
      4 H1         -7.5260   -0.8770    6.0270 hc        1 MOL      0.129377
      5 H2         -7.3550    0.8870    6.2000 hc        1 MOL      0.129377
      6 H3         -8.6140    0.2140    5.1360 hc        1 MOL      0.129377
      7 N1         -7.0600   -0.0940    3.0360 n         1 MOL     -0.385627
      8 C3         -6.3000   -0.3940    1.8120 c3        1 MOL      0.009513
      9 C4         -5.6370    0.8700    1.1940 c         1 MOL      0.536095
     10 O2         -4.5900    0.7920    0.5890 o         1 MOL     -0.666930
     11 C5         -7.1520   -1.1150    0.7260 c3        1 MOL     -0.199713
     12 C6         -8.5310   -0.5560    0.6350 c         1 MOL      0.675401
     13 O3         -8.7760    0.6320    0.9170 o         1 MOL     -0.644033
     14 O4         -9.4150   -1.2660    0.1020 o         1 MOL     -0.644033
     15 H4         -8.0420    0.0870    2.9130 hn        1 MOL      0.226226
     16 H5         -5.4750   -1.0760    2.0030 h1        1 MOL      0.108794
     17 H6         -7.1150   -2.1910    0.9150 hc        1 MOL      0.073440
     18 H7         -6.7330   -1.1850   -0.2770 hc        1 MOL      0.073440
     19 N2         -6.2200    2.0630    1.3870 n         1 MOL     -0.400500
     20 C7         -5.5870    3.3340    0.8860 c3        1 MOL      0.179759
     21 C8         -5.6620    3.4240   -0.6660 c         1 MOL      0.508033
     22 O5         -6.7330    3.3280   -1.1830 o         1 MOL     -0.533583
     23 C9         -6.2610    4.5500    1.4870 c3        1 MOL     -0.387078
     24 C10        -5.7860    5.8780    0.8630 c3        1 MOL      0.215228
     25 C11        -6.3030    7.2460    1.3940 c3        1 MOL     -0.234346
     26 C12        -5.8170    7.3930    2.8890 c3        1 MOL      0.103701
     27 N3         -6.2860    8.7160    3.3220 n4        1 MOL     -0.310545
     28 H8         -7.0600    2.1560    1.9340 hn        1 MOL      0.262100
     29 H9         -4.5480    3.3380    1.2030 h1        1 MOL      0.032754
     30 H10        -6.0530    4.6280    2.5600 hc        1 MOL      0.120003
     31 H11        -7.3370    4.4470    1.3730 hc        1 MOL      0.120003
     32 H12        -5.9980    5.9170   -0.2080 hc        1 MOL     -0.004778
     33 H13        -4.6960    5.8610    0.8010 hc        1 MOL     -0.004778
     34 H14        -7.3770    7.2030    1.1980 hc        1 MOL      0.095532
     35 H15        -5.9810    8.0680    0.7460 hc        1 MOL      0.095532
     36 H16        -4.7210    7.3510    2.8620 hx        1 MOL      0.057440
     37 H17        -6.1910    6.6090    3.5330 hx        1 MOL      0.057440
     38 H18        -7.2750    8.8230    3.1710 hn        1 MOL      0.281921
     39 H19        -6.1110    8.8330    4.3060 hn        1 MOL      0.281921
     40 H20        -5.7310    9.4880    2.9620 hn        1 MOL      0.281921
     41 N4         -4.5630    3.4510   -1.3440 n         1 MOL     -0.377971
     42 C13        -4.2000    3.3870   -2.7860 c3        1 MOL     -0.039155
     43 C14        -4.3950    1.9620   -3.4040 c         1 MOL      0.517786
     44 O6         -4.2640    1.8900   -4.6300 o         1 MOL     -0.527735
     45 C15        -2.7530    4.0230   -2.9890 c3        1 MOL     -0.295651
     46 C16        -1.8170    3.3180   -2.0620 c         1 MOL      0.855073
     47 O7         -1.8230    3.6860   -0.8180 o         1 MOL     -0.759032
     48 O8         -1.0730    2.3730   -2.4410 o         1 MOL     -0.759032
     49 H21        -3.7720    3.5320   -0.7260 hn        1 MOL      0.224359
     50 H22        -4.8700    4.0500   -3.3250 h1        1 MOL      0.126441
     51 H23        -2.7370    5.0740   -2.7080 hc        1 MOL      0.099934
     52 H24        -2.3410    3.9410   -3.9940 hc        1 MOL      0.099934
     53 N5         -4.6830    0.8910   -2.6770 n         1 MOL     -0.361422
     54 C17        -4.6070   -0.4960   -3.0760 c3        1 MOL      0.063273
     55 C18        -5.6940   -0.9570   -3.9360 c         1 MOL      0.512942
     56 O9         -6.5290   -0.1910   -4.3810 o         1 MOL     -0.457566
     57 H25        -4.8450    1.0410   -1.6980 hn        1 MOL      0.331340
     58 H26        -4.5680   -1.1210   -2.1860 h1        1 MOL      0.063378
     59 H27        -3.6500   -0.5680   -3.5970 h1        1 MOL      0.063378
     60 N6         -5.7760   -2.2970   -4.2170 n         1 MOL     -0.544558
     61 C19        -4.9580   -3.3650   -3.7100 c3        1 MOL      0.312341
     62 C20        -5.4520   -3.7570   -2.2730 c         1 MOL      0.451225
     63 O10        -6.6270   -4.0950   -2.0800 o         1 MOL     -0.524282
     64 C21        -4.9900   -4.5000   -4.7440 c3        1 MOL     -0.387846
     65 C22        -4.3940   -5.7820   -4.2140 c         1 MOL      0.752201
     66 N7         -5.2270   -6.6750   -3.6400 n         1 MOL     -0.833116
     67 O11        -3.2110   -6.0050   -4.2840 o         1 MOL     -0.571479
     68 H28        -6.4780   -2.5940   -4.8740 hn        1 MOL      0.315351
     69 H29        -3.9770   -2.9130   -3.5580 h1        1 MOL     -0.041240
     70 H30        -4.4530   -4.2490   -5.6580 hc        1 MOL      0.106350
     71 H31        -6.0330   -4.7730   -4.8800 hc        1 MOL      0.106350
     72 H32        -6.2210   -6.5010   -3.6740 hn        1 MOL      0.378597
     73 H33        -4.9520   -7.4990   -3.1290 hn        1 MOL      0.378597
     74 N8         -4.6000   -3.8300   -1.2840 n         1 MOL     -0.469501
     75 C23        -3.1920   -3.3520   -1.2550 c3        1 MOL      0.122105
     76 C24        -2.4800   -3.5310    0.1010 c         1 MOL      0.553705
     77 O12        -3.0930   -3.9940    1.0800 o         1 MOL     -0.517087
     78 H34        -5.0000   -3.9450   -0.3700 hn        1 MOL      0.309498
     79 H35        -3.1120   -2.2940   -1.4910 h1        1 MOL     -0.003591
     80 H36        -2.6310   -3.9220   -1.9960 h1        1 MOL     -0.003591
     81 N9         -1.2540   -3.1160    0.1330 n         1 MOL     -0.592561
     82 C25        -0.3080   -3.2800    1.2270 c3        1 MOL      0.281456
     83 C26         0.8320   -2.1720    1.1970 c         1 MOL      0.308010
     84 O13         0.8030   -1.3050    0.2850 o         1 MOL     -0.447663
     85 C27         0.1590   -4.7640    1.2310 c3        1 MOL     -0.459325
     86 C28         0.9470   -5.1260    2.4920 ca        1 MOL      0.047411
     87 C29         2.3310   -5.1870    2.5580 ca        1 MOL     -0.129429
     88 C30         0.1860   -5.2680    3.6750 ca        1 MOL     -0.129429
     89 C31         2.9840   -5.4540    3.7960 ca        1 MOL     -0.301452
     90 C32         0.8520   -5.4010    4.9520 ca        1 MOL     -0.301452
     91 C33         2.2490   -5.4820    4.9950 ca        1 MOL      0.413099
     92 O14         2.9380   -5.7510    6.1090 oh        1 MOL     -0.505036
     93 H37        -0.8500   -2.7890   -0.7310 hn        1 MOL      0.321449
     94 H38        -0.7480   -3.0980    2.2100 h1        1 MOL      0.037047
     95 H39         0.7340   -4.9180    0.3210 hc        1 MOL      0.184815
     96 H40        -0.6940   -5.4500    1.2460 hc        1 MOL      0.184815
     97 H41         2.9000   -5.2140    1.6400 ha        1 MOL      0.133494
     98 H42        -0.8830   -5.3350    3.5150 ha        1 MOL      0.133494
     99 H43         4.0420   -5.6570    3.8940 ha        1 MOL      0.151023
    100 H44         0.2440   -5.7690    5.7610 ha        1 MOL      0.151023
    101 H45         2.4300   -5.7520    6.9240 ho        1 MOL      0.380410
    102 N10         1.7700   -2.1870    2.1400 n         1 MOL     -0.290156
    103 C34         2.8980   -1.2870    2.1790 c3        1 MOL      0.573803
    104 C35         4.2440   -2.0170    1.7210 c         1 MOL      0.194422
    105 O15         4.4590   -3.2370    1.6610 o         1 MOL     -0.422651
    106 C36         3.1250   -0.6850    3.5580 c3        1 MOL      0.060010
    107 C37         1.9670    0.1580    4.0890 c3        1 MOL      0.092944
    108 C38         3.4500   -1.7730    4.6780 c3        1 MOL     -0.256318
    109 C39         1.4400    1.3030    3.2840 c3        1 MOL     -0.143466
    110 H46         1.7190   -2.8060    2.9350 hn        1 MOL      0.202378
    111 H47         2.7230   -0.4830    1.4740 h1        1 MOL     -0.146178
    112 H48         4.0550   -0.1180    3.6750 hc        1 MOL      0.013102
    113 H49         2.1310    0.5730    5.0850 hc        1 MOL     -0.022239
    114 H50         1.1300   -0.5320    4.1190 hc        1 MOL     -0.022239
    115 H51         2.5670   -2.3970    4.8290 hc        1 MOL      0.056141
    116 H52         4.2320   -2.4530    4.3510 hc        1 MOL      0.056141
    117 H53         3.7510   -1.2670    5.5940 hc        1 MOL      0.056141
    118 H54         1.3250    1.0740    2.2210 hc        1 MOL      0.011065
    119 H55         0.4870    1.5330    3.7680 hc        1 MOL      0.011065
    120 H56         2.1820    2.0970    3.3410 hc        1 MOL      0.011065
    121 N11         5.2590   -1.1980    1.3520 n         1 MOL     -0.213586
    122 C40         6.5680   -1.5710    0.8790 c3        1 MOL      0.066149
    123 C41         6.8600   -1.4790   -0.6330 c         1 MOL      0.513652
    124 O16         6.0840   -0.8810   -1.3770 o         1 MOL     -0.461225
    125 C42         7.6930   -0.9060    1.7660 c3        1 MOL      0.016093
    126 O17         7.7320    0.3540    1.3050 oh        1 MOL     -0.284404
    127 H57         5.0950   -0.2190    1.1940 hn        1 MOL      0.105998
    128 H58         6.7030   -2.6350    1.0650 h1        1 MOL      0.029228
    129 H59         8.6470   -1.3790    1.5340 h1        1 MOL      0.037513
    130 H60         7.3850   -1.0420    2.8020 h1        1 MOL      0.037513
    131 H61         8.6170    0.6990    1.3860 ho        1 MOL      0.296022
    132 N12         8.0030   -2.0110   -1.0550 n         1 MOL     -0.526753
    133 C43         8.5510   -1.8940   -2.4330 c3        1 MOL      0.154275
    134 C44         8.9430   -0.4130   -2.7820 c         1 MOL      0.511093
    135 O18         8.4600    0.1580   -3.7260 o         1 MOL     -0.443994
    136 C45         7.5260   -2.4750   -3.4860 c3        1 MOL     -0.348506
    137 H62         8.5060   -2.5620   -0.3770 hn        1 MOL      0.301081
    138 H63         9.4590   -2.4820   -2.3630 h1        1 MOL      0.056296
    139 H64         6.5450   -1.9960   -3.4220 hc        1 MOL      0.109862
    140 H65         8.0220   -2.3890   -4.4480 hc        1 MOL      0.109862
    141 H66         7.5050   -3.5570   -3.3690 hc        1 MOL      0.109862
    142 N13         9.8130    0.1750   -1.9700 n         1 MOL     -0.590652
    143 C46        10.1910    1.5720   -1.9670 c3        1 MOL      0.342840
    144 C47         9.0850    2.6180   -1.7920 c         1 MOL      0.409084
    145 O19         9.2020    3.7160   -2.3260 o         1 MOL     -0.478279
    146 C48        11.3440    1.8210   -3.0320 c3        1 MOL     -0.377195
    147 H67        10.2670   -0.2960   -1.1970 hn        1 MOL      0.301958
    148 H68        10.7770    1.5590   -1.0420 h1        1 MOL     -0.012839
    149 H69        12.0880    1.0530   -2.8390 hc        1 MOL      0.109979
    150 H70        10.8610    1.7750   -4.0070 hc        1 MOL      0.109979
    151 H71        11.6690    2.8400   -2.8130 hc        1 MOL      0.109979
    152 N14         7.9900    2.3350   -1.1090 n         1 MOL     -0.336552
    153 C49         6.9310    3.2920   -0.7320 c3        1 MOL      0.072510
    154 C50         7.3390    4.1410    0.5000 c         1 MOL      0.289551
    155 O20         7.5400    5.3510    0.3880 o         1 MOL     -0.497658
    156 C51         5.5840    2.6410   -0.4130 c3        1 MOL      0.222108
    157 C52         4.3140    3.5630   -0.2200 c3        1 MOL     -0.482691
    158 C53         2.9360    2.7990   -0.4090 c         1 MOL      0.870822
    159 O21         2.6080    1.7850    0.2410 o         1 MOL     -0.773596
    160 O22         2.1590    3.1050   -1.3330 o         1 MOL     -0.773596
    161 H72         7.7860    1.3620   -0.9300 hn        1 MOL      0.099316
    162 H73         6.7680    3.9560   -1.5810 h1        1 MOL      0.098234
    163 H74         5.6960    1.9360    0.4100 hc        1 MOL      0.010820
    164 H75         5.2560    2.0760   -1.2720 hc        1 MOL      0.010820
    165 H76         4.4340    4.3550   -0.9630 hc        1 MOL      0.120222
    166 H77         4.3500    3.9060    0.8110 hc        1 MOL      0.120222
    167 N15         7.5030    3.5490    1.6380 n         1 MOL     -0.036312
    168 C54         7.8790    4.1900    2.9000 c3        1 MOL     -0.277143
    169 H78         8.3180    3.4490    3.5670 h1        1 MOL      0.115965
    170 H79         8.6060    4.9790    2.7050 h1        1 MOL      0.115965
    171 H80         6.9940    4.6200    3.3690 h1        1 MOL      0.115965
    172 H81         7.3770    2.5540    1.6130 hn        1 MOL      0.044775
    173 Ca1         0.5010    0.9410   -1.0370 Ca        1 MOL      1.789100
    174 O23         2.5840   -0.4840   -2.1050 oh        1 MOL     -0.871734
    175 H82         2.9020   -1.3840   -2.0730 ho        1 MOL      0.421032
    176 H83         3.3370    0.0350   -2.3820 ho        1 MOL      0.421032
    177 O24        -0.5430   -0.7970   -2.7500 oh        1 MOL     -0.871734
    178 H84        -1.0890   -0.6570   -3.5230 ho        1 MOL      0.421032
    179 H85        -0.2570   -1.7110   -2.8250 ho        1 MOL      0.421032
    180 O25        -1.9880    0.2140    0.0080 oh        1 MOL     -0.871734
    181 H86        -2.8960    0.4720    0.1350 ho        1 MOL      0.421032
    182 H87        -1.7890   -0.3420    0.7690 ho        1 MOL      0.421032
    183 O26        -0.5010    2.5070    0.9840 oh        1 MOL     -0.871734
    184 H88        -1.0610    3.0470    0.4290 ho        1 MOL      0.421032
    185 H89        -0.9980    2.4260    1.8050 ho        1 MOL      0.421032
@<TRIPOS>BOND
     1    1    2 1   
     2    1    4 1   
     3    1    5 1   
     4    1    6 1   
     5    2    3 2   
     6    2    7 1   
     7    7    8 1   
     8    7   15 1   
     9    8    9 1   
    10    8   11 1   
    11    8   16 1   
    12    9   10 2   
    13    9   19 1   
    14   11   12 1   
    15   11   17 1   
    16   11   18 1   
    17   12   13 1   
    18   12   14 1   
    19   19   20 1   
    20   19   28 1   
    21   20   21 1   
    22   20   23 1   
    23   20   29 1   
    24   21   22 2   
    25   21   41 1   
    26   23   24 1   
    27   23   30 1   
    28   23   31 1   
    29   24   25 1   
    30   24   32 1   
    31   24   33 1   
    32   25   26 1   
    33   25   34 1   
    34   25   35 1   
    35   26   27 1   
    36   26   36 1   
    37   26   37 1   
    38   27   38 1   
    39   27   39 1   
    40   27   40 1   
    41   41   42 1   
    42   41   49 1   
    43   42   43 1   
    44   42   45 1   
    45   42   50 1   
    46   43   44 2   
    47   43   53 1   
    48   45   46 1   
    49   45   51 1   
    50   45   52 1   
    51   46   47 1   
    52   46   48 1   
    53   53   54 1   
    54   53   57 1   
    55   54   55 1   
    56   54   58 1   
    57   54   59 1   
    58   55   56 2   
    59   55   60 1   
    60   60   61 1   
    61   60   68 1   
    62   61   62 1   
    63   61   64 1   
    64   61   69 1   
    65   62   63 2   
    66   62   74 1   
    67   64   65 1   
    68   64   70 1   
    69   64   71 1   
    70   65   66 1   
    71   65   67 2   
    72   66   72 1   
    73   66   73 1   
    74   74   75 1   
    75   74   78 1   
    76   75   76 1   
    77   75   79 1   
    78   75   80 1   
    79   76   77 2   
    80   76   81 1   
    81   81   82 1   
    82   81   93 1   
    83   82   83 1   
    84   82   85 1   
    85   82   94 1   
    86   83   84 2   
    87   83  102 1   
    88   85   86 1   
    89   85   95 1   
    90   85   96 1   
    91   86   87 ar  
    92   86   88 ar  
    93   87   89 ar  
    94   87   97 1   
    95   88   90 ar  
    96   88   98 1   
    97   89   91 ar  
    98   89   99 1   
    99   90   91 ar  
   100   90  100 1   
   101   91   92 1   
   102   92  101 1   
   103  102  103 1   
   104  102  110 1   
   105  103  104 1   
   106  103  106 1   
   107  103  111 1   
   108  104  105 2   
   109  104  121 1   
   110  106  107 1   
   111  106  108 1   
   112  106  112 1   
   113  107  109 1   
   114  107  113 1   
   115  107  114 1   
   116  108  115 1   
   117  108  116 1   
   118  108  117 1   
   119  109  118 1   
   120  109  119 1   
   121  109  120 1   
   122  121  122 1   
   123  121  127 1   
   124  122  123 1   
   125  122  125 1   
   126  122  128 1   
   127  123  124 2   
   128  123  132 1   
   129  125  126 1   
   130  125  129 1   
   131  125  130 1   
   132  126  131 1   
   133  132  133 1   
   134  132  137 1   
   135  133  134 1   
   136  133  136 1   
   137  133  138 1   
   138  134  135 2   
   139  134  142 1   
   140  136  139 1   
   141  136  140 1   
   142  136  141 1   
   143  142  143 1   
   144  142  147 1   
   145  143  144 1   
   146  143  146 1   
   147  143  148 1   
   148  144  145 2   
   149  144  152 1   
   150  146  149 1   
   151  146  150 1   
   152  146  151 1   
   153  152  153 1   
   154  152  161 1   
   155  153  154 1   
   156  153  156 1   
   157  153  162 1   
   158  154  155 2   
   159  154  167 1   
   160  156  157 1   
   161  156  163 1   
   162  156  164 1   
   163  157  158 1   
   164  157  165 1   
   165  157  166 1   
   166  158  159 1   
   167  158  160 1   
   168  167  168 1   
   169  167  172 1   
   170  168  169 1   
   171  168  170 1   
   172  168  171 1   
   173  174  175 1   
   174  174  176 1   
   175  177  178 1   
   176  177  179 1   
   177  180  181 1   
   178  180  182 1   
   179  183  184 1   
   180  183  185 1   
@<TRIPOS>SUBSTRUCTURE
     1 MOL         1 TEMP              0 ****  ****    0 ROOT
