@<TRIPOS>MOLECULE
MOL
  184   179     1     0     0
SMALL
resp


@<TRIPOS>ATOM
      1 C1          2.9180   -2.1020    2.9070 c3        1 MOL     -0.374564
      2 C2          4.3940   -1.9170    2.6680 c         1 MOL      0.786426
      3 O1          5.0260   -1.0270    3.1920 o         1 MOL     -0.609200
      4 H1          2.7180   -2.0820    3.9780 hc        1 MOL      0.092692
      5 H2          2.3680   -1.2980    2.4190 hc        1 MOL      0.092692
      6 H3          2.6010   -3.0620    2.4970 hc        1 MOL      0.092692
      7 N1          5.0110   -2.7710    1.8810 n         1 MOL     -0.781789
      8 C3          6.4990   -3.0590    1.7400 c3        1 MOL      0.535265
      9 C4          6.9250   -2.7600    0.2700 c         1 MOL      0.476764
     10 O2          6.0850   -2.4430   -0.6050 o         1 MOL     -0.546462
     11 C5          6.8600   -4.4590    2.2430 c3        1 MOL     -0.416442
     12 C6          8.3440   -4.8470    2.2020 c         1 MOL      0.806450
     13 O3          9.1810   -4.0140    2.3500 o         1 MOL     -0.740673
     14 O4          8.5930   -6.0770    2.0740 o         1 MOL     -0.740673
     15 H4          4.3620   -3.2920    1.3060 hn        1 MOL      0.330266
     16 H5          7.1130   -2.4080    2.3640 h1        1 MOL      0.041080
     17 H6          6.2500   -5.2130    1.7390 hc        1 MOL      0.045796
     18 H7          6.5820   -4.4580    3.2920 hc        1 MOL      0.045796
     19 N2          8.1910   -2.8290   -0.1300 n         1 MOL     -0.616381
     20 C7          8.7910   -2.5340   -1.3770 c3        1 MOL      0.280331
     21 C8          8.6720   -1.0720   -1.6420 c         1 MOL      0.274587
     22 O5          8.3020   -0.6740   -2.7310 o         1 MOL     -0.539680
     23 C9         10.2210   -3.0390   -1.3760 c3        1 MOL     -0.467506
     24 H8          8.8210   -3.0960    0.6030 hn        1 MOL      0.367483
     25 H9          8.2580   -3.1460   -2.1150 h1        1 MOL      0.062852
     26 H10        10.8210   -2.4930   -0.6530 hc        1 MOL      0.122260
     27 H11        10.4700   -4.0590   -1.1140 hc        1 MOL      0.122260
     28 H12        10.5430   -3.0190   -2.4180 hc        1 MOL      0.122260
     29 N3          9.1600   -0.2310   -0.7520 n         1 MOL     -0.221693
     30 C10         9.0420    1.2530   -0.7620 c3        1 MOL      0.046814
     31 C11         7.5800    1.6020   -0.6180 c         1 MOL      0.462917
     32 O6          7.1920    2.6960   -1.1100 o         1 MOL     -0.608455
     33 C12         9.9320    1.9450    0.3290 c3        1 MOL     -0.438227
     34 C13         9.9220    1.2940    1.6430 c         1 MOL      0.880310
     35 O7          9.0310    0.4740    1.8850 o         1 MOL     -0.751288
     36 O8         10.7900    1.6390    2.4500 o         1 MOL     -0.751288
     37 H13         9.3740   -0.5480    0.1870 hn        1 MOL      0.214323
     38 H14         9.4050    1.5880   -1.7250 h1        1 MOL      0.081103
     39 H15         9.5180    2.9520    0.3390 hc        1 MOL      0.089128
     40 H16        10.9390    1.8880   -0.0890 hc        1 MOL      0.089128
     41 N4          6.7910    0.7950    0.0790 n         1 MOL     -0.005494
     42 C14         5.3520    1.1500    0.3950 c3        1 MOL     -0.248448
     43 C15         4.4310    1.0900   -0.7950 c         1 MOL      0.493289
     44 O9          4.6400    0.3240   -1.7850 o         1 MOL     -0.447671
     45 H17         7.1840   -0.0850    0.3630 hn        1 MOL      0.139032
     46 H18         5.3040    2.1960    0.6890 h1        1 MOL      0.103085
     47 H19         4.9210    0.5230    1.1830 h1        1 MOL      0.103085
     48 N5          3.4800    2.0700   -0.7740 n         1 MOL     -0.348903
     49 C16         2.5010    2.4040   -1.7930 c3        1 MOL     -0.197783
     50 C17         2.0240    3.9030   -1.5300 c         1 MOL      0.592440
     51 O10         1.8100    4.2950   -0.3520 o         1 MOL     -0.489258
     52 C18         1.3900    1.3390   -1.9340 c3        1 MOL     -0.337539
     53 C19         0.5460    1.4720   -3.1790 c         1 MOL      0.684916
     54 N6         -0.5040    2.2880   -3.2430 n         1 MOL     -0.832130
     55 O11         0.8400    0.7730   -4.1320 o         1 MOL     -0.577373
     56 H20         3.6010    2.6420    0.0550 hn        1 MOL      0.252358
     57 H21         3.0150    2.3380   -2.7490 h1        1 MOL      0.127274
     58 H22         0.7860    1.3980   -1.0230 hc        1 MOL      0.173609
     59 H23         1.8720    0.3710   -2.0470 hc        1 MOL      0.173609
     60 H24        -0.7450    2.8590   -2.4460 hn        1 MOL      0.359358
     61 H25        -1.2060    2.2040   -3.9710 hn        1 MOL      0.359358
     62 N7          1.9100    4.7240   -2.5860 n         1 MOL     -0.293652
     63 C20         1.7190    6.2220   -2.4190 c3        1 MOL     -0.330185
     64 C21         0.4230    6.6440   -1.8300 c         1 MOL      0.638311
     65 O12        -0.5570    6.3430   -2.5030 o         1 MOL     -0.507053
     66 H26         2.1950    4.3600   -3.4860 hn        1 MOL      0.296349
     67 H27         1.8770    6.6500   -3.4120 h1        1 MOL      0.139184
     68 H28         2.5240    6.4350   -1.7270 h1        1 MOL      0.139184
     69 N8          0.3120    7.3290   -0.6790 n         1 MOL     -0.415124
     70 C22        -0.9620    7.7370   -0.0530 c3        1 MOL     -0.383624
     71 C23        -1.9610    6.7220    0.4890 c         1 MOL      0.545571
     72 O13        -3.1010    7.0210    0.7740 o         1 MOL     -0.551186
     73 C24        -0.7860    8.8970    0.8840 c3        1 MOL      0.512604
     74 C25        -0.1660    8.3960    2.2130 c3        1 MOL     -0.330061
     75 O14        -0.0510    9.9710    0.2890 oh        1 MOL     -0.630741
     76 H29         1.1350    7.6180   -0.1610 hn        1 MOL      0.292757
     77 H30        -1.5740    8.1360   -0.8540 h1        1 MOL      0.177765
     78 H31        -1.7610    9.3620    1.0610 h1        1 MOL      0.031911
     79 H32         0.7930    9.6030    0.0210 ho        1 MOL      0.369583
     80 H33        -0.9670    7.9850    2.8260 hc        1 MOL      0.075380
     81 H34         0.6070    7.6880    1.9210 hc        1 MOL      0.075380
     82 H35         0.3090    9.2520    2.7020 hc        1 MOL      0.075380
     83 N9         -1.5200    5.4440    0.5360 n         1 MOL     -0.243068
     84 C26        -2.0950    4.2520    1.2240 c3        1 MOL      0.109504
     85 C27        -2.1680    3.0370    0.2340 c         1 MOL      0.242726
     86 O15        -1.6840    3.0870   -0.8490 o         1 MOL     -0.382095
     87 C28        -1.5850    3.9670    2.6790 c3        1 MOL      0.083766
     88 C29        -0.3300    3.0570    2.5880 c3        1 MOL      0.075855
     89 C30        -1.3730    5.3050    3.4490 c3        1 MOL     -0.287121
     90 C31         0.6140    3.1520    3.7500 c3        1 MOL     -0.333600
     91 H36        -0.6530    5.2810    0.0450 hn        1 MOL      0.162980
     92 H37        -3.1320    4.5060    1.4280 h1        1 MOL      0.019959
     93 H38        -2.4000    3.4740    3.2070 hc        1 MOL     -0.010071
     94 H39         0.2520    3.3640    1.7210 hc        1 MOL      0.013525
     95 H40        -0.6490    2.0260    2.4290 hc        1 MOL      0.013525
     96 H41        -1.4630    5.3200    4.5360 hc        1 MOL      0.085780
     97 H42        -0.4340    5.6740    3.0450 hc        1 MOL      0.085780
     98 H43        -2.2180    5.9460    3.1900 hc        1 MOL      0.085780
     99 H44         0.0670    3.0070    4.6790 hc        1 MOL      0.086419
    100 H45         1.3730    2.3910    3.6090 hc        1 MOL      0.086419
    101 H46         1.0840    4.1370    3.6780 hc        1 MOL      0.086419
    102 N10        -2.8490    1.9810    0.7290 n         1 MOL     -0.165786
    103 C32        -2.8330    0.6270    0.0390 c3        1 MOL     -0.037599
    104 C33        -4.2250    0.0050    0.0030 c         1 MOL      0.609401
    105 O16        -4.4540   -1.2140   -0.1000 o         1 MOL     -0.579009
    106 C34        -1.7480   -0.3240    0.6930 c3        1 MOL     -0.148024
    107 C35        -1.5080   -1.6910   -0.1520 c         1 MOL      0.699716
    108 O17        -1.8560   -1.6900   -1.3300 o         1 MOL     -0.725238
    109 O18        -0.8880   -2.6270    0.2510 o         1 MOL     -0.725238
    110 H47        -3.2650    2.1180    1.6380 hn        1 MOL      0.182106
    111 H48        -2.6180    0.6910   -1.0180 h1        1 MOL      0.069344
    112 H49        -2.0480   -0.4180    1.7380 hc        1 MOL      0.046070
    113 H50        -0.8170    0.2370    0.5870 hc        1 MOL      0.046070
    114 N11        -5.2560    0.8700    0.1510 n         1 MOL     -0.485959
    115 C36        -6.6700    0.5050   -0.0540 c3        1 MOL      0.262938
    116 C37        -7.0970   -0.7940    0.7120 c         1 MOL      0.424081
    117 O19        -6.8780   -0.8670    1.9270 o         1 MOL     -0.545027
    118 C38        -7.5090    1.7010    0.3400 c3        1 MOL     -0.243631
    119 C39        -8.8370    1.6650   -0.2640 ca        1 MOL      0.066318
    120 C40        -8.9710    1.8210   -1.6070 ca        1 MOL     -0.167263
    121 C41        -9.9160    1.1550    0.5360 ca        1 MOL     -0.167263
    122 C42       -10.1740    1.4420   -2.2030 ca        1 MOL     -0.086952
    123 C43       -11.0390    0.6220   -0.0440 ca        1 MOL     -0.086952
    124 C44       -11.0970    0.7960   -1.4230 ca        1 MOL     -0.106835
    125 H51        -5.0090    1.8570    0.1980 hn        1 MOL      0.208882
    126 H52        -6.8000    0.3770   -1.1200 h1        1 MOL      0.010077
    127 H53        -7.0780    2.6410   -0.0170 hc        1 MOL      0.103520
    128 H54        -7.5760    1.7400    1.4250 hc        1 MOL      0.103520
    129 H55        -8.1560    2.2720   -2.1510 ha        1 MOL      0.127983
    130 H56        -9.8490    1.1970    1.6120 ha        1 MOL      0.127983
    131 H57       -10.4060    1.6230   -3.2480 ha        1 MOL      0.109051
    132 H58       -11.9700    0.3120    0.4040 ha        1 MOL      0.109051
    133 H59       -12.0540    0.6040   -1.8830 ha        1 MOL      0.082271
    134 N12        -7.6220   -1.8470    0.1370 n         1 MOL     -0.145640
    135 C45        -8.0570   -3.2030    0.6670 c3        1 MOL     -0.110859
    136 C46        -7.0260   -3.9780    1.4740 c         1 MOL      0.443225
    137 O20        -7.2600   -5.1590    1.8570 o         1 MOL     -0.519874
    138 C47        -8.4700   -3.9490   -0.6470 c3        1 MOL      0.059710
    139 C48        -9.1300   -2.9410   -1.5140 c3        1 MOL     -0.148480
    140 C49        -8.1040   -1.7560   -1.2740 c3        1 MOL      0.108018
    141 H60        -8.9030   -3.1360    1.3450 h1        1 MOL      0.111866
    142 H61        -7.5940   -4.4160   -1.0820 hc        1 MOL      0.032302
    143 H62        -9.1640   -4.7540   -0.4200 hc        1 MOL      0.032302
    144 H63        -9.1520   -3.2600   -2.5570 hc        1 MOL      0.048763
    145 H64       -10.1400   -2.6650   -1.2060 hc        1 MOL      0.048763
    146 H65        -7.2810   -1.7880   -1.9810 h1        1 MOL      0.013851
    147 H66        -8.6350   -0.8460   -1.5470 h1        1 MOL      0.013851
    148 N13        -5.7730   -3.3950    1.6340 n         1 MOL     -0.212306
    149 C50        -4.6470   -3.9570    2.3620 c3        1 MOL     -0.298492
    150 C51        -4.0240   -3.1070    3.4160 c         1 MOL      0.456489
    151 O21        -3.1750   -3.4930    4.2330 o         1 MOL     -0.534321
    152 C52        -3.6230   -4.4730    1.4160 c3        1 MOL      0.102868
    153 C53        -3.9600   -5.7430    0.6080 c3        1 MOL     -0.276620
    154 C54        -2.8290   -5.9770   -0.4240 c         1 MOL      0.753577
    155 O22        -2.6440   -5.1350   -1.3970 o         1 MOL     -0.757347
    156 O23        -2.0120   -6.8980   -0.3470 o         1 MOL     -0.757347
    157 H67        -5.5970   -2.4750    1.2580 hn        1 MOL      0.235168
    158 H68        -4.9790   -4.8570    2.8740 h1        1 MOL      0.167135
    159 H69        -2.6570   -4.6020    1.9130 hc        1 MOL      0.073782
    160 H70        -3.4340   -3.6830    0.6790 hc        1 MOL      0.073782
    161 H71        -4.9260   -5.7320    0.1080 hc        1 MOL      0.072677
    162 H72        -4.0550   -6.5760    1.3060 hc        1 MOL      0.072677
    163 N14        -4.4870   -1.8130    3.5150 n         1 MOL     -0.099436
    164 C55        -4.2220   -0.8760    4.6560 c3        1 MOL     -0.201329
    165 H73        -3.8270   -1.4380    5.5020 h1        1 MOL      0.087445
    166 H74        -3.4950   -0.1250    4.3480 h1        1 MOL      0.087445
    167 H75        -5.1510   -0.3860    4.9470 h1        1 MOL      0.087445
    168 H76        -5.1220   -1.5340    2.7760 hn        1 MOL      0.127323
    169 Ca1        -0.6920   -3.8300   -2.1480 Ca        1 MOL      1.681767
    170 O24         1.7150   -2.8290   -1.7200 oh        1 MOL     -0.782556
    171 H77         2.2510   -3.4000   -1.1680 ho        1 MOL      0.392061
    172 H78         2.3420   -2.2430   -2.1270 ho        1 MOL      0.392061
    173 O25         0.5700   -6.0960   -1.3760 oh        1 MOL     -0.782556
    174 H79         0.9940   -6.7440   -1.9350 ho        1 MOL      0.392061
    175 H80        -0.0390   -6.6010   -0.8420 ho        1 MOL      0.392061
    176 O26        -0.0900   -1.9970   -3.9730 oh        1 MOL     -0.782556
    177 H81        -0.8670   -1.4520   -4.0430 ho        1 MOL      0.392061
    178 H82         0.3580   -1.8920   -4.8110 ho        1 MOL      0.392061
    179 O27         0.9030   -4.9550   -4.2700 oh        1 MOL     -0.782556
    180 H83         1.8340   -4.9340   -4.4640 ho        1 MOL      0.392061
    181 H84         0.4920   -5.3280   -5.0550 ho        1 MOL      0.392061
    182 O28        -2.3200   -4.2350   -4.3610 oh        1 MOL     -0.782556
    183 H85        -3.1690   -3.9380   -4.6970 ho        1 MOL      0.392061
    184 H86        -1.7790   -4.3280   -5.1450 ho        1 MOL      0.392061
@<TRIPOS>BOND
     1    1    2 1   
     2    1    4 1   
     3    1    5 1   
     4    1    6 1   
     5    2    3 2   
     6    2    7 1   
     7    7    8 1   
     8    7   15 1   
     9    8    9 1   
    10    8   11 1   
    11    8   16 1   
    12    9   10 2   
    13    9   19 1   
    14   11   12 1   
    15   11   17 1   
    16   11   18 1   
    17   12   13 1   
    18   12   14 1   
    19   19   20 1   
    20   19   24 1   
    21   20   21 1   
    22   20   23 1   
    23   20   25 1   
    24   21   22 2   
    25   21   29 1   
    26   23   26 1   
    27   23   27 1   
    28   23   28 1   
    29   29   30 1   
    30   29   37 1   
    31   30   31 1   
    32   30   33 1   
    33   30   38 1   
    34   31   32 2   
    35   31   41 1   
    36   33   34 1   
    37   33   39 1   
    38   33   40 1   
    39   34   35 1   
    40   34   36 1   
    41   41   42 1   
    42   41   45 1   
    43   42   43 1   
    44   42   46 1   
    45   42   47 1   
    46   43   44 2   
    47   43   48 1   
    48   48   49 1   
    49   48   56 1   
    50   49   50 1   
    51   49   52 1   
    52   49   57 1   
    53   50   51 2   
    54   50   62 1   
    55   52   53 1   
    56   52   58 1   
    57   52   59 1   
    58   53   54 1   
    59   53   55 2   
    60   54   60 1   
    61   54   61 1   
    62   62   63 1   
    63   62   66 1   
    64   63   64 1   
    65   63   67 1   
    66   63   68 1   
    67   64   65 2   
    68   64   69 1   
    69   69   70 1   
    70   69   76 1   
    71   70   71 1   
    72   70   73 1   
    73   70   77 1   
    74   71   72 2   
    75   71   83 1   
    76   73   74 1   
    77   73   75 1   
    78   73   78 1   
    79   74   80 1   
    80   74   81 1   
    81   74   82 1   
    82   75   79 1   
    83   83   84 1   
    84   83   91 1   
    85   84   85 1   
    86   84   87 1   
    87   84   92 1   
    88   85   86 2   
    89   85  102 1   
    90   87   88 1   
    91   87   89 1   
    92   87   93 1   
    93   88   90 1   
    94   88   94 1   
    95   88   95 1   
    96   89   96 1   
    97   89   97 1   
    98   89   98 1   
    99   90   99 1   
   100   90  100 1   
   101   90  101 1   
   102  102  103 1   
   103  102  110 1   
   104  103  104 1   
   105  103  106 1   
   106  103  111 1   
   107  104  105 2   
   108  104  114 1   
   109  106  107 1   
   110  106  112 1   
   111  106  113 1   
   112  107  108 1   
   113  107  109 1   
   114  114  115 1   
   115  114  125 1   
   116  115  116 1   
   117  115  118 1   
   118  115  126 1   
   119  116  117 2   
   120  116  134 1   
   121  118  119 1   
   122  118  127 1   
   123  118  128 1   
   124  119  120 ar  
   125  119  121 ar  
   126  120  122 ar  
   127  120  129 1   
   128  121  123 ar  
   129  121  130 1   
   130  122  124 ar  
   131  122  131 1   
   132  123  124 ar  
   133  123  132 1   
   134  124  133 1   
   135  134  135 1   
   136  134  140 1   
   137  135  136 1   
   138  135  138 1   
   139  135  141 1   
   140  136  137 2   
   141  136  148 1   
   142  138  139 1   
   143  138  142 1   
   144  138  143 1   
   145  139  140 1   
   146  139  144 1   
   147  139  145 1   
   148  140  146 1   
   149  140  147 1   
   150  148  149 1   
   151  148  157 1   
   152  149  150 1   
   153  149  152 1   
   154  149  158 1   
   155  150  151 2   
   156  150  163 1   
   157  152  153 1   
   158  152  159 1   
   159  152  160 1   
   160  153  154 1   
   161  153  161 1   
   162  153  162 1   
   163  154  155 1   
   164  154  156 1   
   165  163  164 1   
   166  163  168 1   
   167  164  165 1   
   168  164  166 1   
   169  164  167 1   
   170  170  171 1   
   171  170  172 1   
   172  173  174 1   
   173  173  175 1   
   174  176  177 1   
   175  176  178 1   
   176  179  180 1   
   177  179  181 1   
   178  182  183 1   
   179  182  184 1   
@<TRIPOS>SUBSTRUCTURE
     1 MOL         1 TEMP              0 ****  ****    0 ROOT
