@<TRIPOS>MOLECULE
MOL
  189   185     1     0     0
SMALL
resp


@<TRIPOS>ATOM
      1 C1          9.8290    0.8780    1.1150 c3        1 MOL     -0.679829
      2 C2          8.5780    0.5590    0.2640 c         1 MOL      0.856965
      3 O1          7.4900    0.5160    0.7480 o         1 MOL     -0.653561
      4 H1         10.0970    0.0030    1.7080 hc        1 MOL      0.171348
      5 H2         10.6590    1.1400    0.4590 hc        1 MOL      0.171348
      6 H3          9.6140    1.7140    1.7800 hc        1 MOL      0.171348
      7 N1          8.8030    0.1330   -0.9970 n         1 MOL     -0.739624
      8 C3          7.7230   -0.3300   -1.8270 c3        1 MOL      0.056419
      9 C4          7.4130   -1.7980   -1.4930 c         1 MOL      0.621365
     10 O2          7.5670   -2.7060   -2.2670 o         1 MOL     -0.547873
     11 C5          7.9380   -0.1700   -3.3960 c3        1 MOL     -0.156029
     12 C6          8.4330    1.2120   -3.7830 c         1 MOL      0.737999
     13 O3          9.6160    1.3060   -4.1860 o         1 MOL     -0.668800
     14 O4          7.5480    2.0740   -3.9190 o         1 MOL     -0.668800
     15 H4          9.7360    0.1230   -1.3850 hn        1 MOL      0.369744
     16 H5          6.8000    0.1750   -1.5570 h1        1 MOL      0.110314
     17 H6          6.9740   -0.4150   -3.8470 hc        1 MOL      0.051120
     18 H7          8.7510   -0.8520   -3.6310 hc        1 MOL      0.051120
     19 N2          6.9460   -2.0570   -0.2340 n         1 MOL     -0.318413
     20 C7          6.5500   -3.3940    0.1530 c3        1 MOL      0.167530
     21 C8          5.0800   -3.7140   -0.1740 c         1 MOL      0.476126
     22 O5          4.8010   -4.7930   -0.6750 o         1 MOL     -0.562724
     23 C9          6.7990   -3.5170    1.6680 c3        1 MOL     -0.155477
     24 C10         8.2720   -3.7610    1.8950 c3        1 MOL      0.013342
     25 C11         8.6380   -3.7380    3.4190 c3        1 MOL     -0.103784
     26 C12        10.0610   -4.1080    3.8560 c3        1 MOL      0.079589
     27 N3         10.1500   -4.0470    5.3000 n4        1 MOL     -0.251067
     28 H8          6.9590   -1.2950    0.4310 hn        1 MOL      0.194680
     29 H9          7.1470   -4.1670   -0.3230 h1        1 MOL      0.038270
     30 H10         6.1980   -4.3480    2.0370 hc        1 MOL      0.047538
     31 H11         6.3800   -2.6330    2.1550 hc        1 MOL      0.047538
     32 H12         8.8960   -3.0790    1.3150 hc        1 MOL      0.022692
     33 H13         8.4760   -4.7570    1.5030 hc        1 MOL      0.022692
     34 H14         7.9540   -4.4910    3.8150 hc        1 MOL      0.045753
     35 H15         8.3130   -2.7940    3.8370 hc        1 MOL      0.045753
     36 H16        10.7510   -3.4270    3.3510 hx        1 MOL      0.065313
     37 H17        10.2730   -5.1130    3.5060 hx        1 MOL      0.065313
     38 H18         9.9840   -3.0790    5.5580 hn        1 MOL      0.246724
     39 H19         9.4840   -4.6800    5.7160 hn        1 MOL      0.246724
     40 H20        11.0760   -4.2640    5.6430 hn        1 MOL      0.246724
     41 N4          4.0930   -2.8380   -0.0880 n         1 MOL     -0.376714
     42 C13         4.1520   -1.5220    0.5320 c3        1 MOL      0.049305
     43 C14         4.1010   -0.4060   -0.6000 c         1 MOL      0.094496
     44 O6          3.7270   -0.6590   -1.7600 o         1 MOL     -0.359156
     45 C15         3.0680   -1.3490    1.6270 c3        1 MOL     -0.239569
     46 C16         1.6530   -1.6980    1.2030 c         1 MOL      0.779857
     47 O7          1.0130   -1.0170    0.3160 o         1 MOL     -0.737576
     48 O8          1.0980   -2.7300    1.7040 o         1 MOL     -0.737576
     49 H21         3.1810   -3.1850   -0.3630 hn        1 MOL      0.351511
     50 H22         5.0700   -1.4070    1.1120 h1        1 MOL      0.108063
     51 H23         3.0920   -0.3400    2.0490 hc        1 MOL      0.033229
     52 H24         3.2580   -1.9660    2.5040 hc        1 MOL      0.033229
     53 N5          4.4300    0.8040   -0.1330 n         1 MOL     -0.186546
     54 C17         4.3250    1.9380   -1.0170 c3        1 MOL     -0.195991
     55 C18         2.9200    2.5530   -1.1110 c         1 MOL      0.588034
     56 O9          1.8910    1.8760   -0.8330 o         1 MOL     -0.543411
     57 H25         4.6350    0.9540    0.8440 hn        1 MOL      0.286269
     58 H26         4.6540    1.6760   -2.0200 h1        1 MOL      0.131132
     59 H27         5.0750    2.6140   -0.6080 h1        1 MOL      0.131132
     60 N6          2.8020    3.7620   -1.6030 n         1 MOL     -0.467453
     61 C19         1.5650    4.5200   -2.0400 c3        1 MOL      0.401822
     62 C20         1.7390    6.0710   -2.1030 c         1 MOL      0.338699
     63 O10         2.9070    6.4960   -1.9570 o         1 MOL     -0.508009
     64 C21         1.1350    3.9150   -3.3810 c3        1 MOL     -0.278365
     65 C22         0.3470    2.5850   -3.3100 c         1 MOL      0.785855
     66 O11        -0.6250    2.4740   -2.5600 o         1 MOL     -0.718292
     67 O12         0.7750    1.6510   -3.9670 o         1 MOL     -0.718292
     68 H28         3.6960    4.1920   -1.7530 hn        1 MOL      0.265367
     69 H29         0.7650    4.3890   -1.3140 h1        1 MOL     -0.014756
     70 H30         1.9570    3.8020   -4.0790 hc        1 MOL      0.066722
     71 H31         0.3880    4.5980   -3.7870 hc        1 MOL      0.066722
     72 N7          0.7910    7.0310   -2.1990 n         1 MOL     -0.393635
     73 C23        -0.5860    6.8010   -1.8870 c3        1 MOL     -0.094779
     74 C24        -0.8960    6.2030   -0.4820 c         1 MOL      0.540444
     75 O13        -0.0520    6.1910    0.3780 o         1 MOL     -0.454908
     76 H32         1.1290    7.9870   -2.2000 hn        1 MOL      0.328534
     77 H33        -1.0180    6.1140   -2.6150 h1        1 MOL      0.072630
     78 H34        -1.0750    7.7430   -2.1220 h1        1 MOL      0.072630
     79 N8         -2.0690    5.6050   -0.3250 n         1 MOL     -0.512982
     80 C25        -2.4620    4.9780    0.9390 c3        1 MOL      0.019859
     81 C26        -1.8290    3.6320    1.2190 c         1 MOL      0.975604
     82 O14        -1.3790    2.8820    0.3130 o         1 MOL     -0.784776
     83 C27        -3.9770    4.8240    1.0150 c3        1 MOL      0.331985
     84 C28        -4.6730    3.8400    0.0570 c3        1 MOL     -0.140966
     85 O15        -4.5780    6.1160    1.0950 oh        1 MOL     -0.625889
     86 H35        -2.6860    5.5670   -1.1260 hn        1 MOL      0.305905
     87 H36        -2.1030    5.6520    1.7190 h1        1 MOL      0.057706
     88 H37        -4.1240    4.3400    1.9750 h1        1 MOL     -0.068938
     89 H38        -5.4220    6.0010    1.5330 ho        1 MOL      0.391138
     90 H39        -4.4350    2.8100    0.3330 hc        1 MOL      0.044100
     91 H40        -5.7530    3.9990    0.1720 hc        1 MOL      0.044100
     92 H41        -4.4590    4.1240   -0.9720 hc        1 MOL      0.044100
     93 N9         -1.7560    3.3240    2.4960 n         1 MOL     -0.580538
     94 C29        -1.0320    2.1770    3.0690 c3        1 MOL     -0.044918
     95 C30        -1.6630    0.8570    2.6430 c         1 MOL      0.426509
     96 O16        -1.6950    0.4870    1.4970 o         1 MOL     -0.504146
     97 C31         0.4790    2.2580    2.8980 c3        1 MOL      0.209207
     98 C32         1.1490    3.6860    2.9580 c3        1 MOL      0.255061
     99 C33         1.1250    1.2560    3.9330 c3        1 MOL     -0.474258
    100 C34         2.4420    3.6520    2.2150 c3        1 MOL     -0.166093
    101 H42        -2.2000    3.9550    3.1450 hn        1 MOL      0.272623
    102 H43        -1.2120    2.2180    4.1410 h1        1 MOL      0.072424
    103 H44         0.8470    1.8620    1.9490 hc        1 MOL     -0.050141
    104 H45         1.3080    3.9960    3.9970 hc        1 MOL     -0.088049
    105 H46         0.4370    4.3410    2.4540 hc        1 MOL     -0.088049
    106 H47         2.2020    1.2660    3.8400 hc        1 MOL      0.113687
    107 H48         0.9550    1.7230    4.9080 hc        1 MOL      0.113687
    108 H49         0.6360    0.2790    3.9500 hc        1 MOL      0.113687
    109 H50         2.9730    4.5870    2.3720 hc        1 MOL      0.026975
    110 H51         3.0210    2.8280    2.6180 hc        1 MOL      0.026975
    111 H52         2.2520    3.5150    1.1470 hc        1 MOL      0.026975
    112 N10        -2.1630    0.1730    3.6860 n         1 MOL     -0.105094
    113 C35        -2.7640   -1.1380    3.6260 c3        1 MOL     -0.362801
    114 C36        -4.1190   -1.1630    2.9480 c         1 MOL      0.426979
    115 O17        -4.4080   -2.2860    2.4520 o         1 MOL     -0.553219
    116 C37        -2.9570   -1.7180    5.0630 c3        1 MOL      0.512289
    117 C38        -3.9880   -1.0540    5.9990 c3        1 MOL     -0.324391
    118 O18        -1.8390   -1.5890    5.8370 oh        1 MOL     -0.627808
    119 H53        -2.0690    0.5640    4.6080 hn        1 MOL      0.184426
    120 H54        -2.0870   -1.8150    3.1170 h1        1 MOL      0.141953
    121 H55        -3.1430   -2.7910    5.0540 h1        1 MOL     -0.004581
    122 H56        -1.1260   -1.9860    5.3400 ho        1 MOL      0.401624
    123 H57        -3.5040   -0.2020    6.4690 hc        1 MOL      0.080966
    124 H58        -4.9040   -0.7810    5.4660 hc        1 MOL      0.080966
    125 H59        -4.3130   -1.7480    6.7740 hc        1 MOL      0.080966
    126 N11        -4.8030   -0.0520    2.7460 n         1 MOL      0.031289
    127 C39        -6.2010    0.0050    2.1200 c3        1 MOL     -0.295352
    128 C40        -6.1350   -0.5010    0.6750 c         1 MOL      0.781898
    129 O19        -5.7500    0.3330   -0.1390 o         1 MOL     -0.615033
    130 C41        -6.9420    1.3700    2.1790 c3        1 MOL      0.491392
    131 C42        -8.4650    1.2550    2.2050 c3        1 MOL     -0.686353
    132 O20        -6.6710    1.9580    3.4860 oh        1 MOL     -0.659615
    133 H60        -4.4490    0.7650    3.2300 hn        1 MOL      0.097367
    134 H61        -6.7720   -0.7530    2.6580 h1        1 MOL      0.048227
    135 H62        -6.6080    2.0570    1.4110 h1        1 MOL      0.047529
    136 H63        -7.1260    1.4980    4.1960 ho        1 MOL      0.408179
    137 H64        -8.8910    2.1560    2.6450 hc        1 MOL      0.176823
    138 H65        -8.8480    1.1230    1.1930 hc        1 MOL      0.176823
    139 H66        -8.8500    0.4590    2.8390 hc        1 MOL      0.176823
    140 N12        -6.4660   -1.7450    0.4330 n         1 MOL     -0.562243
    141 C43        -6.6410   -2.3270   -0.9910 c3        1 MOL      0.120026
    142 C44        -5.2810   -2.3720   -1.6750 c         1 MOL      0.464724
    143 O21        -5.0090   -1.7240   -2.7450 o         1 MOL     -0.528139
    144 C45        -7.9070   -1.6580   -1.6230 c3        1 MOL     -0.174143
    145 C46        -9.1420   -2.3210   -1.2370 c3        1 MOL      0.145842
    146 C47       -10.3820   -1.8730   -2.0820 c3        1 MOL     -0.003996
    147 C48       -11.5490   -2.8030   -1.7930 c3        1 MOL      0.013896
    148 N13       -12.7040   -2.5060   -2.7020 n4        1 MOL     -0.072232
    149 H67        -6.7030   -2.3300    1.2140 hn        1 MOL      0.298688
    150 H68        -6.8620   -3.3880   -0.9270 h1        1 MOL      0.055158
    151 H69        -7.8160   -1.6840   -2.7100 hc        1 MOL      0.069274
    152 H70        -8.0000   -0.6410   -1.2500 hc        1 MOL      0.069274
    153 H71        -9.3320   -2.0930   -0.1910 hc        1 MOL     -0.026662
    154 H72        -8.9290   -3.3810   -1.3960 hc        1 MOL     -0.026662
    155 H73       -10.0830   -1.9520   -3.1340 hc        1 MOL      0.024465
    156 H74       -10.6350   -0.8690   -1.7340 hc        1 MOL      0.024465
    157 H75       -11.9080   -2.6770   -0.7640 hx        1 MOL      0.054680
    158 H76       -11.1650   -3.7990   -1.9950 hx        1 MOL      0.054680
    159 H77       -12.4230   -2.3360   -3.6650 hn        1 MOL      0.168493
    160 H78       -13.3280   -3.2970   -2.6590 hn        1 MOL      0.168493
    161 H79       -13.2150   -1.7220   -2.3360 hn        1 MOL      0.168493
    162 N14        -4.2840   -3.0710   -1.0640 n         1 MOL     -0.466229
    163 C49        -3.0000   -3.1350   -1.6330 c3        1 MOL      0.416089
    164 C50        -1.9400   -2.7970   -0.5920 c         1 MOL      0.242818
    165 O22        -1.3190   -1.7730   -0.8100 o         1 MOL     -0.472143
    166 C51        -2.7130   -4.4340   -2.3610 c3        1 MOL     -0.069689
    167 C52        -3.8230   -4.8170   -3.4000 c3        1 MOL     -0.197862
    168 C53        -3.3160   -5.8870   -4.3570 c         1 MOL      0.676113
    169 O23        -2.3280   -5.6540   -5.0660 o         1 MOL     -0.608671
    170 O24        -3.7920   -7.0470   -4.3640 o         1 MOL     -0.608671
    171 H80        -4.5680   -3.4840   -0.1820 hn        1 MOL      0.299664
    172 H81        -2.8290   -2.3380   -2.3650 h1        1 MOL      0.079439
    173 H82        -2.8170   -5.3040   -1.7210 hc        1 MOL      0.048395
    174 H83        -1.7530   -4.3860   -2.8800 hc        1 MOL      0.048395
    175 H84        -3.9390   -3.9330   -4.0270 hc        1 MOL      0.021040
    176 H85        -4.7800   -5.1820   -3.0220 hc        1 MOL      0.021040
    177 N15        -1.5270   -3.5970    0.4530 n         1 MOL     -0.316559
    178 C54        -1.8790   -4.9090    0.9700 c3        1 MOL     -0.097225
    179 H86        -1.7810   -4.9100    2.0550 h1        1 MOL      0.049441
    180 H87        -2.9090   -5.1430    0.6990 h1        1 MOL      0.049441
    181 H88        -1.2120   -5.6590    0.5440 h1        1 MOL      0.049441
    182 H89        -0.8240   -3.1790    1.0500 hn        1 MOL      0.377133
    183 Ca1        -0.5240    0.6490   -0.8830 Ca        1 MOL      1.814651
    184 O25        -0.1600   -0.6380   -3.3790 oh        1 MOL     -1.004738
    185 H90         0.3110    0.1140   -3.7290 ho        1 MOL      0.463988
    186 H91        -0.1140   -1.2990   -4.0700 ho        1 MOL      0.463988
    187 O26        -3.1530    0.9130   -1.2330 oh        1 MOL     -1.004738
    188 H92        -3.9350    1.0450   -0.6880 ho        1 MOL      0.463988
    189 H93        -3.4740    0.9600   -2.1300 ho        1 MOL      0.463988
@<TRIPOS>BOND
     1    1    2 1   
     2    1    4 1   
     3    1    5 1   
     4    1    6 1   
     5    2    3 2   
     6    2    7 1   
     7    7    8 1   
     8    7   15 1   
     9    8    9 1   
    10    8   11 1   
    11    8   16 1   
    12    9   10 2   
    13    9   19 1   
    14   11   12 1   
    15   11   17 1   
    16   11   18 1   
    17   12   13 1   
    18   12   14 1   
    19   19   20 1   
    20   19   28 1   
    21   20   21 1   
    22   20   23 1   
    23   20   29 1   
    24   21   22 2   
    25   21   41 1   
    26   23   24 1   
    27   23   30 1   
    28   23   31 1   
    29   24   25 1   
    30   24   32 1   
    31   24   33 1   
    32   25   26 1   
    33   25   34 1   
    34   25   35 1   
    35   26   27 1   
    36   26   36 1   
    37   26   37 1   
    38   27   38 1   
    39   27   39 1   
    40   27   40 1   
    41   41   42 1   
    42   41   49 1   
    43   42   43 1   
    44   42   45 1   
    45   42   50 1   
    46   43   44 2   
    47   43   53 1   
    48   45   46 1   
    49   45   51 1   
    50   45   52 1   
    51   46   47 1   
    52   46   48 1   
    53   53   54 1   
    54   53   57 1   
    55   54   55 1   
    56   54   58 1   
    57   54   59 1   
    58   55   56 2   
    59   55   60 1   
    60   60   61 1   
    61   60   68 1   
    62   61   62 1   
    63   61   64 1   
    64   61   69 1   
    65   62   63 2   
    66   62   72 1   
    67   64   65 1   
    68   64   70 1   
    69   64   71 1   
    70   65   66 1   
    71   65   67 1   
    72   72   73 1   
    73   72   76 1   
    74   73   74 1   
    75   73   77 1   
    76   73   78 1   
    77   74   75 2   
    78   74   79 1   
    79   79   80 1   
    80   79   86 1   
    81   80   81 1   
    82   80   83 1   
    83   80   87 1   
    84   81   82 2   
    85   81   93 1   
    86   83   84 1   
    87   83   85 1   
    88   83   88 1   
    89   84   90 1   
    90   84   91 1   
    91   84   92 1   
    92   85   89 1   
    93   93   94 1   
    94   93  101 1   
    95   94   95 1   
    96   94   97 1   
    97   94  102 1   
    98   95   96 2   
    99   95  112 1   
   100   97   98 1   
   101   97   99 1   
   102   97  103 1   
   103   98  100 1   
   104   98  104 1   
   105   98  105 1   
   106   99  106 1   
   107   99  107 1   
   108   99  108 1   
   109  100  109 1   
   110  100  110 1   
   111  100  111 1   
   112  112  113 1   
   113  112  119 1   
   114  113  114 1   
   115  113  116 1   
   116  113  120 1   
   117  114  115 2   
   118  114  126 1   
   119  116  117 1   
   120  116  118 1   
   121  116  121 1   
   122  117  123 1   
   123  117  124 1   
   124  117  125 1   
   125  118  122 1   
   126  126  127 1   
   127  126  133 1   
   128  127  128 1   
   129  127  130 1   
   130  127  134 1   
   131  128  129 2   
   132  128  140 1   
   133  130  131 1   
   134  130  132 1   
   135  130  135 1   
   136  131  137 1   
   137  131  138 1   
   138  131  139 1   
   139  132  136 1   
   140  140  141 1   
   141  140  149 1   
   142  141  142 1   
   143  141  144 1   
   144  141  150 1   
   145  142  143 2   
   146  142  162 1   
   147  144  145 1   
   148  144  151 1   
   149  144  152 1   
   150  145  146 1   
   151  145  153 1   
   152  145  154 1   
   153  146  147 1   
   154  146  155 1   
   155  146  156 1   
   156  147  148 1   
   157  147  157 1   
   158  147  158 1   
   159  148  159 1   
   160  148  160 1   
   161  148  161 1   
   162  162  163 1   
   163  162  171 1   
   164  163  164 1   
   165  163  166 1   
   166  163  172 1   
   167  164  165 2   
   168  164  177 1   
   169  166  167 1   
   170  166  173 1   
   171  166  174 1   
   172  167  168 1   
   173  167  175 1   
   174  167  176 1   
   175  168  169 1   
   176  168  170 1   
   177  177  178 1   
   178  177  182 1   
   179  178  179 1   
   180  178  180 1   
   181  178  181 1   
   182  184  185 1   
   183  184  186 1   
   184  187  188 1   
   185  187  189 1   
@<TRIPOS>SUBSTRUCTURE
     1 MOL         1 TEMP              0 ****  ****    0 ROOT
