@<TRIPOS>MOLECULE
MOL
  195   189     1     0     0
SMALL
resp


@<TRIPOS>ATOM
      1 C1         12.8670    5.0770   -2.7990 c3        1 MOL     -0.302856
      2 C2         12.5900    3.6980   -2.2480 c         1 MOL      0.762675
      3 O1         13.4480    2.8320   -2.1940 o         1 MOL     -0.568932
      4 H1         11.9630    5.6830   -2.7320 hc        1 MOL      0.080266
      5 H2         13.6630    5.5470   -2.2210 hc        1 MOL      0.080266
      6 H3         13.1730    4.9970   -3.8430 hc        1 MOL      0.080266
      7 N1         11.3220    3.4000   -1.8020 n         1 MOL     -0.469883
      8 C3         10.9270    2.1680   -1.0930 c3        1 MOL     -0.410923
      9 C4          9.4900    1.8340   -1.2970 c         1 MOL      1.147666
     10 O2          8.6620    2.7750   -1.4040 o         1 MOL     -0.822754
     11 C5         11.3490    2.2870    0.4150 c3        1 MOL     -0.162432
     12 C6         11.0660    3.6240    1.0850 c         1 MOL      0.658384
     13 O3         10.0420    4.3740    0.8330 o         1 MOL     -0.675488
     14 O4         11.7660    4.0060    2.0470 o         1 MOL     -0.675488
     15 H4         10.5310    3.9940   -2.0080 hn        1 MOL      0.248776
     16 H5         11.4420    1.2870   -1.4730 h1        1 MOL      0.133407
     17 H6         12.4330    2.1790    0.4390 hc        1 MOL      0.101169
     18 H7         10.9850    1.4690    1.0400 hc        1 MOL      0.101169
     19 N2          9.1320    0.5410   -1.2310 n         1 MOL     -0.942813
     20 C7          7.8110    0.0360   -1.5160 c3        1 MOL      0.275938
     21 C8          6.9790   -0.1800   -0.2450 c         1 MOL      0.613063
     22 O5          7.5410   -0.4770    0.8030 o         1 MOL     -0.528856
     23 C9          7.9930   -1.1240   -2.4730 c3        1 MOL     -0.135560
     24 C10         6.8710   -2.2140   -2.6390 c3        1 MOL      0.033121
     25 C11         7.2560   -3.3980   -3.5090 c3        1 MOL     -0.108980
     26 C12         6.3780   -4.6510   -3.3820 c3        1 MOL      0.029798
     27 N3          6.4260   -5.2670   -2.0730 n4        1 MOL     -0.305399
     28 H8          9.9010   -0.0970   -1.0950 hn        1 MOL      0.406072
     29 H9          7.3260    0.8320   -2.0860 h1        1 MOL      0.077701
     30 H10         8.8820   -1.6820   -2.1940 hc        1 MOL      0.057845
     31 H11         8.2660   -0.7220   -3.4460 hc        1 MOL      0.057845
     32 H12         5.9250   -1.8190   -3.0230 hc        1 MOL      0.011638
     33 H13         6.7290   -2.4850   -1.5890 hc        1 MOL      0.011638
     34 H14         8.2960   -3.6690   -3.3370 hc        1 MOL      0.064642
     35 H15         7.3720   -3.1950   -4.5800 hc        1 MOL      0.064642
     36 H16         6.6830   -5.3180   -4.1910 hx        1 MOL      0.087215
     37 H17         5.3820   -4.2340   -3.5380 hx        1 MOL      0.087215
     38 H18         7.3210   -5.6450   -1.7920 hn        1 MOL      0.314635
     39 H19         6.2290   -4.6120   -1.3260 hn        1 MOL      0.314635
     40 H20         5.7640   -6.0270   -1.9830 hn        1 MOL      0.314635
     41 N4          5.6630    0.0830   -0.3960 n         1 MOL     -0.877797
     42 C13         4.6850   -0.0180    0.7090 c3        1 MOL      0.276235
     43 C14         3.2690   -0.1600    0.1830 c         1 MOL      0.618248
     44 O6          3.0200    0.1480   -0.9980 o         1 MOL     -0.524846
     45 C15         4.6900    1.2700    1.4890 c3        1 MOL     -0.168190
     46 C16         4.4590    2.4390    0.5810 c         1 MOL      0.679994
     47 O7          5.3850    3.1460    0.1620 o         1 MOL     -0.684979
     48 O8          3.2970    2.8610    0.3360 o         1 MOL     -0.684979
     49 H21         5.3090    0.4820   -1.2560 hn        1 MOL      0.356185
     50 H22         4.9810   -0.8440    1.3550 h1        1 MOL      0.119449
     51 H23         5.6130    1.2870    2.0650 hc        1 MOL      0.024893
     52 H24         3.9210    1.3740    2.2510 hc        1 MOL      0.024893
     53 N5          2.3240   -0.7540    0.8700 n         1 MOL     -0.590404
     54 C17         2.3770   -1.3850    2.2130 c3        1 MOL     -0.095388
     55 C18         2.6720   -2.9120    2.1600 c         1 MOL      0.605971
     56 O9          3.2020   -3.3970    1.2080 o         1 MOL     -0.554072
     57 H25         1.3690   -0.7570    0.5280 hn        1 MOL      0.401578
     58 H26         1.3980   -1.2780    2.6920 h1        1 MOL      0.089360
     59 H27         3.1160   -0.8490    2.8130 h1        1 MOL      0.089360
     60 N6          2.3850   -3.6750    3.2110 n         1 MOL     -0.537523
     61 C19         2.6770   -5.1170    3.2940 c3        1 MOL      0.263857
     62 C20         1.8800   -6.0300    2.3380 c         1 MOL      0.514930
     63 O10         2.4310   -6.7850    1.6010 o         1 MOL     -0.509353
     64 C21         2.6370   -5.6460    4.7950 c3        1 MOL     -0.433692
     65 C22         3.7190   -4.9820    5.6740 c         1 MOL      0.775624
     66 O11         3.4960   -4.6080    6.8700 o         1 MOL     -0.684551
     67 O12         4.8530   -4.7900    5.2340 o         1 MOL     -0.684551
     68 H28         2.1040   -3.1850    4.0390 hn        1 MOL      0.301553
     69 H29         3.6600   -5.3540    2.8940 h1        1 MOL      0.003841
     70 H30         2.8590   -6.7100    4.6910 hc        1 MOL      0.085210
     71 H31         1.6190   -5.5360    5.1840 hc        1 MOL      0.085210
     72 N7          0.5610   -5.7730    2.3720 n         1 MOL     -0.449030
     73 C23        -0.3880   -6.4440    1.4650 c3        1 MOL      0.092553
     74 C24        -0.5060   -5.8790    0.0770 c         1 MOL      0.422734
     75 O13        -1.3380   -6.2910   -0.7310 o         1 MOL     -0.566704
     76 H32         0.1850   -5.0410    2.9600 hn        1 MOL      0.300573
     77 H33        -1.3900   -6.2550    1.8490 h1        1 MOL      0.048693
     78 H34        -0.3000   -7.5250    1.4680 h1        1 MOL      0.048693
     79 N8          0.3900   -4.9970   -0.3400 n         1 MOL     -0.038646
     80 C25         0.1530   -4.1270   -1.5060 c3        1 MOL      0.019804
     81 C26        -0.2200   -2.7110   -1.0860 c         1 MOL      0.189963
     82 O14        -0.0720   -2.2680    0.0670 o         1 MOL     -0.439689
     83 C27         1.3550   -4.2710   -2.4520 c3        1 MOL      0.208202
     84 C28         2.7010   -3.8040   -1.9040 c3        1 MOL     -0.470303
     85 O15         1.5700   -5.6610   -2.8460 oh        1 MOL     -0.607622
     86 H35         1.1750   -4.8100    0.2740 hn        1 MOL      0.039248
     87 H36        -0.6750   -4.5000   -2.1220 h1        1 MOL      0.052847
     88 H37         1.0490   -3.6400   -3.2900 h1        1 MOL      0.000778
     89 H38         0.7340   -5.9340   -3.2110 ho        1 MOL      0.398205
     90 H39         3.4290   -3.8350   -2.7120 hc        1 MOL      0.155263
     91 H40         2.6170   -2.7990   -1.4920 hc        1 MOL      0.155263
     92 H41         3.0350   -4.5470   -1.1780 hc        1 MOL      0.155263
     93 N9         -0.7900   -1.9580   -1.9990 n         1 MOL      0.054632
     94 C29        -1.3220   -0.6310   -1.7940 c3        1 MOL     -0.464424
     95 C30        -2.6180   -0.6170   -0.9680 c         1 MOL      0.719470
     96 O16        -2.7470    0.1780   -0.0430 o         1 MOL     -0.503550
     97 C31        -1.4640    0.0170   -3.1970 c3        1 MOL      0.290703
     98 C32        -0.2880   -0.1490   -4.0930 c3        1 MOL      0.064577
     99 C33        -1.9220    1.4610   -3.0450 c3        1 MOL     -0.395272
    100 C34         1.0630    0.3250   -3.4420 c3        1 MOL     -0.269287
    101 H42        -1.0630   -2.3980   -2.8620 hn        1 MOL      0.204428
    102 H43        -0.6610   -0.0150   -1.1910 h1        1 MOL      0.151377
    103 H44        -2.2370   -0.4990   -3.7640 hc        1 MOL     -0.039527
    104 H45        -0.4760    0.3400   -5.0460 hc        1 MOL     -0.039811
    105 H46        -0.2540   -1.2160   -4.3340 hc        1 MOL     -0.039811
    106 H47        -1.8510    1.9850   -3.9990 hc        1 MOL      0.111355
    107 H48        -2.9510    1.3930   -2.6740 hc        1 MOL      0.111355
    108 H49        -1.2700    1.8050   -2.2480 hc        1 MOL      0.111355
    109 H50         0.8500    1.2960   -2.9990 hc        1 MOL      0.086093
    110 H51         1.1930   -0.4620   -2.6850 hc        1 MOL      0.086093
    111 H52         1.9460    0.3500   -4.0720 hc        1 MOL      0.086093
    112 N10        -3.5600   -1.6170   -1.0530 n         1 MOL     -0.452897
    113 C35        -4.8620   -1.5470   -0.3430 c3        1 MOL     -0.053778
    114 C36        -6.0570   -1.9120   -1.2840 c         1 MOL      0.643888
    115 O17        -5.7300   -2.2690   -2.4170 o         1 MOL     -0.554324
    116 C37        -4.8850   -2.5730    0.7830 c3        1 MOL      0.426634
    117 C38        -4.2900   -3.9730    0.4900 c3        1 MOL     -0.624819
    118 O18        -4.1200   -2.0120    1.8120 oh        1 MOL     -0.595809
    119 H53        -3.5170   -2.3040   -1.7980 hn        1 MOL      0.229227
    120 H54        -5.0250   -0.5360    0.0370 h1        1 MOL      0.074340
    121 H55        -5.8880   -2.6180    1.2140 h1        1 MOL     -0.037082
    122 H56        -4.5250   -2.2800    2.6410 ho        1 MOL      0.385656
    123 H57        -4.6340   -4.3770   -0.4630 hc        1 MOL      0.165749
    124 H58        -3.2070   -3.9140    0.4060 hc        1 MOL      0.165749
    125 H59        -4.5300   -4.6360    1.3240 hc        1 MOL      0.165749
    126 N11        -7.2590   -1.8910   -0.8150 n         1 MOL     -0.575501
    127 C39        -8.5610   -2.3280   -1.4920 c3        1 MOL      0.090929
    128 C40        -9.4540   -1.0600   -1.6950 c         1 MOL      0.642878
    129 O19        -9.9260   -0.7580   -2.8040 o         1 MOL     -0.573806
    130 C41        -9.2880   -3.3630   -0.5640 c3        1 MOL      0.158702
    131 C42       -10.6000   -3.8270   -1.1420 c3        1 MOL     -0.312376
    132 O20        -9.4900   -2.8370    0.7620 oh        1 MOL     -0.595509
    133 H60        -7.3080   -1.6570    0.1680 hn        1 MOL      0.301898
    134 H61        -8.3700   -2.8380   -2.4320 h1        1 MOL      0.093295
    135 H62        -8.6400   -4.2300   -0.5770 h1        1 MOL      0.056767
    136 H63        -9.6970   -3.5990    1.3060 ho        1 MOL      0.415199
    137 H64       -11.2220   -2.9570   -1.3150 hc        1 MOL      0.093182
    138 H65       -10.4250   -4.2370   -2.1340 hc        1 MOL      0.093182
    139 H66       -11.0940   -4.6130   -0.5670 hc        1 MOL      0.093182
    140 N12        -9.7000   -0.2540   -0.6060 n         1 MOL     -0.580610
    141 C43       -10.4940    0.9940   -0.5690 c3        1 MOL      0.183405
    142 C44        -9.8930    1.8610    0.5320 c         1 MOL      0.511547
    143 O21        -9.4270    1.3330    1.5680 o         1 MOL     -0.468085
    144 C45       -11.9840    0.6160   -0.2370 c3        1 MOL     -0.155189
    145 C46       -12.8770    1.8440   -0.3570 c3        1 MOL     -0.212819
    146 C47       -14.2550    1.2930    0.0120 c3        1 MOL      0.217653
    147 C48       -15.3640    2.2620   -0.4060 c3        1 MOL      0.034691
    148 N13       -16.6800    1.7960    0.1150 n4        1 MOL     -0.157643
    149 H67        -9.3390   -0.6400    0.2530 hn        1 MOL      0.271512
    150 H68       -10.5410    1.5140   -1.5190 h1        1 MOL      0.066660
    151 H69       -12.0240    0.2270    0.7860 hc        1 MOL      0.083821
    152 H70       -12.2940   -0.1790   -0.9110 hc        1 MOL      0.083821
    153 H71       -12.8290    2.1730   -1.3880 hc        1 MOL      0.087016
    154 H72       -12.6130    2.5530    0.4350 hc        1 MOL      0.087016
    155 H73       -14.3050    1.0790    1.0780 hc        1 MOL     -0.032678
    156 H74       -14.4350    0.3420   -0.5060 hc        1 MOL     -0.032678
    157 H75       -15.5110    2.2480   -1.4910 hx        1 MOL      0.044608
    158 H76       -15.1200    3.2350    0.0180 hx        1 MOL      0.044608
    159 H77       -16.6700    1.7860    1.1230 hn        1 MOL      0.195164
    160 H78       -17.3540    2.3960   -0.3390 hn        1 MOL      0.195164
    161 H79       -16.8880    0.8800   -0.2610 hn        1 MOL      0.195164
    162 N14        -9.9810    3.1630    0.3220 n         1 MOL     -0.516470
    163 C49        -9.4170    4.0960    1.2380 c3        1 MOL      0.175096
    164 C50        -7.9310    3.8420    1.5570 c         1 MOL      0.173929
    165 O22        -7.5120    3.8180    2.7100 o         1 MOL     -0.488697
    166 C51        -9.6900    5.4990    0.7460 c3        1 MOL     -0.130586
    167 C52        -8.9560    6.6490    1.4930 c3        1 MOL     -0.161623
    168 C53        -8.9650    7.9830    0.7560 c         1 MOL      0.608357
    169 O23        -8.7540    8.0240   -0.4980 o         1 MOL     -0.618105
    170 O24        -8.8410    9.0750    1.3730 o         1 MOL     -0.618105
    171 H80       -10.2830    3.5330   -0.5650 hn        1 MOL      0.287959
    172 H81        -9.9990    4.0710    2.1560 h1        1 MOL      0.087512
    173 H82       -10.7610    5.7310    0.7580 hc        1 MOL      0.035338
    174 H83        -9.4470    5.4700   -0.3170 hc        1 MOL      0.035338
    175 H84        -7.8960    6.3800    1.5300 hc        1 MOL      0.088621
    176 H85        -9.1890    6.7440    2.5520 hc        1 MOL      0.088621
    177 N15        -7.0100    3.4970    0.6790 n         1 MOL     -0.179027
    178 C54        -6.9810    3.7690   -0.7430 c3        1 MOL     -0.038981
    179 H86        -7.7100    4.5440   -0.9790 h1        1 MOL      0.048153
    180 H87        -5.9850    4.1080   -1.0280 h1        1 MOL      0.048153
    181 H88        -7.2260    2.8600   -1.2920 h1        1 MOL      0.048153
    182 H89        -6.1330    3.2630    1.1260 hn        1 MOL      0.283174
    183 Ca1         7.4870    4.4730    0.4060 Ca        1 MOL      1.778789
    184 O25         8.6600    6.6640    2.1970 oh        1 MOL     -0.879168
    185 H90         8.5920    7.5780    2.4920 ho        1 MOL      0.433082
    186 H91         9.1970    6.2340    2.8680 ho        1 MOL      0.433082
    187 O26         6.8030    4.7240    3.0100 oh        1 MOL     -0.879168
    188 H92         6.9010    5.3820    3.7020 ho        1 MOL      0.433082
    189 H93         6.3510    3.9980    3.4340 ho        1 MOL      0.433082
    190 O27         5.4470    6.2300    0.7750 oh        1 MOL     -0.879168
    191 H94         5.3990    7.1760    0.9120 ho        1 MOL      0.433082
    192 H95         4.5830    5.8980    1.0210 ho        1 MOL      0.433082
    193 O28         7.9950    2.1110    1.9350 oh        1 MOL     -0.879168
    194 H96         8.4530    2.0070    2.7720 ho        1 MOL      0.433082
    195 H97         7.9440    1.2280    1.5860 ho        1 MOL      0.433082
@<TRIPOS>BOND
     1    1    2 1   
     2    1    4 1   
     3    1    5 1   
     4    1    6 1   
     5    2    3 2   
     6    2    7 1   
     7    7    8 1   
     8    7   15 1   
     9    8    9 1   
    10    8   11 1   
    11    8   16 1   
    12    9   10 2   
    13    9   19 1   
    14   11   12 1   
    15   11   17 1   
    16   11   18 1   
    17   12   13 1   
    18   12   14 1   
    19   19   20 1   
    20   19   28 1   
    21   20   21 1   
    22   20   23 1   
    23   20   29 1   
    24   21   22 2   
    25   21   41 1   
    26   23   24 1   
    27   23   30 1   
    28   23   31 1   
    29   24   25 1   
    30   24   32 1   
    31   24   33 1   
    32   25   26 1   
    33   25   34 1   
    34   25   35 1   
    35   26   27 1   
    36   26   36 1   
    37   26   37 1   
    38   27   38 1   
    39   27   39 1   
    40   27   40 1   
    41   41   42 1   
    42   41   49 1   
    43   42   43 1   
    44   42   45 1   
    45   42   50 1   
    46   43   44 2   
    47   43   53 1   
    48   45   46 1   
    49   45   51 1   
    50   45   52 1   
    51   46   47 1   
    52   46   48 1   
    53   53   54 1   
    54   53   57 1   
    55   54   55 1   
    56   54   58 1   
    57   54   59 1   
    58   55   56 2   
    59   55   60 1   
    60   60   61 1   
    61   60   68 1   
    62   61   62 1   
    63   61   64 1   
    64   61   69 1   
    65   62   63 2   
    66   62   72 1   
    67   64   65 1   
    68   64   70 1   
    69   64   71 1   
    70   65   66 1   
    71   65   67 1   
    72   72   73 1   
    73   72   76 1   
    74   73   74 1   
    75   73   77 1   
    76   73   78 1   
    77   74   75 2   
    78   74   79 1   
    79   79   80 1   
    80   79   86 1   
    81   80   81 1   
    82   80   83 1   
    83   80   87 1   
    84   81   82 2   
    85   81   93 1   
    86   83   84 1   
    87   83   85 1   
    88   83   88 1   
    89   84   90 1   
    90   84   91 1   
    91   84   92 1   
    92   85   89 1   
    93   93   94 1   
    94   93  101 1   
    95   94   95 1   
    96   94   97 1   
    97   94  102 1   
    98   95   96 2   
    99   95  112 1   
   100   97   98 1   
   101   97   99 1   
   102   97  103 1   
   103   98  100 1   
   104   98  104 1   
   105   98  105 1   
   106   99  106 1   
   107   99  107 1   
   108   99  108 1   
   109  100  109 1   
   110  100  110 1   
   111  100  111 1   
   112  112  113 1   
   113  112  119 1   
   114  113  114 1   
   115  113  116 1   
   116  113  120 1   
   117  114  115 2   
   118  114  126 1   
   119  116  117 1   
   120  116  118 1   
   121  116  121 1   
   122  117  123 1   
   123  117  124 1   
   124  117  125 1   
   125  118  122 1   
   126  126  127 1   
   127  126  133 1   
   128  127  128 1   
   129  127  130 1   
   130  127  134 1   
   131  128  129 2   
   132  128  140 1   
   133  130  131 1   
   134  130  132 1   
   135  130  135 1   
   136  131  137 1   
   137  131  138 1   
   138  131  139 1   
   139  132  136 1   
   140  140  141 1   
   141  140  149 1   
   142  141  142 1   
   143  141  144 1   
   144  141  150 1   
   145  142  143 2   
   146  142  162 1   
   147  144  145 1   
   148  144  151 1   
   149  144  152 1   
   150  145  146 1   
   151  145  153 1   
   152  145  154 1   
   153  146  147 1   
   154  146  155 1   
   155  146  156 1   
   156  147  148 1   
   157  147  157 1   
   158  147  158 1   
   159  148  159 1   
   160  148  160 1   
   161  148  161 1   
   162  162  163 1   
   163  162  171 1   
   164  163  164 1   
   165  163  166 1   
   166  163  172 1   
   167  164  165 2   
   168  164  177 1   
   169  166  167 1   
   170  166  173 1   
   171  166  174 1   
   172  167  168 1   
   173  167  175 1   
   174  167  176 1   
   175  168  169 1   
   176  168  170 1   
   177  177  178 1   
   178  177  182 1   
   179  178  179 1   
   180  178  180 1   
   181  178  181 1   
   182  184  185 1   
   183  184  186 1   
   184  187  188 1   
   185  187  189 1   
   186  190  191 1   
   187  190  192 1   
   188  193  194 1   
   189  193  195 1   
@<TRIPOS>SUBSTRUCTURE
     1 MOL         1 TEMP              0 ****  ****    0 ROOT
