@<TRIPOS>MOLECULE
MOL
  178   175     1     0     0
SMALL
resp


@<TRIPOS>ATOM
      1 C1          2.6360   -3.0120    4.2760 c3        1 MOL     -0.232457
      2 C2          3.6480   -1.9900    3.6810 c         1 MOL      0.611949
      3 O1          3.5540   -1.6700    2.4770 o         1 MOL     -0.525585
      4 H1          2.3170   -2.6750    5.2630 hc        1 MOL      0.054590
      5 H2          1.7680   -3.0870    3.6210 hc        1 MOL      0.054590
      6 H3          3.1130   -3.9890    4.3630 hc        1 MOL      0.054590
      7 N1          4.5550   -1.4450    4.4190 n         1 MOL     -0.592010
      8 C3          5.6860   -0.6470    3.8500 c3        1 MOL      0.520264
      9 C4          6.4890   -1.3660    2.7300 c         1 MOL      0.013090
     10 O2          6.7630   -0.7230    1.6880 o         1 MOL     -0.329462
     11 C5          6.6060   -0.0140    4.9170 c3        1 MOL     -0.126902
     12 C6          7.7730    0.6980    4.2880 c         1 MOL      0.789181
     13 O3          7.5600    1.5710    3.4850 o         1 MOL     -0.742154
     14 O4          8.9220    0.3470    4.6360 o         1 MOL     -0.742154
     15 H4          4.5750   -1.7950    5.3580 hn        1 MOL      0.268060
     16 H5          5.1670    0.2040    3.4160 h1        1 MOL      0.001241
     17 H6          7.0770   -0.7730    5.5450 hc        1 MOL     -0.061904
     18 H7          5.9140    0.6200    5.4730 hc        1 MOL     -0.061904
     19 N2          6.7820   -2.6230    2.8590 n         1 MOL     -0.258500
     20 C7          7.5480   -3.4010    1.8830 c3        1 MOL      0.422911
     21 C8          6.8370   -3.4040    0.4980 c         1 MOL      0.314524
     22 O5          7.4570   -3.3890   -0.5180 o         1 MOL     -0.477337
     23 C9          9.0170   -2.9870    2.0420 c3        1 MOL     -0.415052
     24 H8          6.4160   -3.0680    3.6930 hn        1 MOL      0.203124
     25 H9          7.4070   -4.4160    2.2470 h1        1 MOL     -0.050257
     26 H10         9.4390   -3.5710    2.8520 hc        1 MOL      0.101162
     27 H11         9.4440   -3.3340    1.0930 hc        1 MOL      0.101162
     28 H12         9.0350   -1.9130    2.2060 hc        1 MOL      0.101162
     29 N3          5.4730   -3.3770    0.4390 n         1 MOL     -0.384591
     30 C10         4.6640   -3.2510   -0.7280 c3        1 MOL      0.109390
     31 C11         4.9920   -2.0730   -1.7220 c         1 MOL      0.442504
     32 O6          4.6010   -1.9900   -2.8790 o         1 MOL     -0.486430
     33 C12         4.5260   -4.6260   -1.3940 c3        1 MOL     -0.246261
     34 C13         3.3640   -4.6850   -2.3500 c         1 MOL      0.643926
     35 O7          3.5040   -5.2410   -3.4480 o         1 MOL     -0.673700
     36 O8          2.2370   -4.1020   -2.0930 o         1 MOL     -0.673700
     37 H13         5.0610   -3.6060    1.3300 hn        1 MOL      0.240544
     38 H14         3.6900   -3.0090   -0.2860 h1        1 MOL      0.099041
     39 H15         4.4840   -5.4770   -0.7130 hc        1 MOL      0.054302
     40 H16         5.4230   -4.6410   -2.0170 hc        1 MOL      0.054302
     41 N4          5.6710   -1.0110   -1.2160 n         1 MOL     -0.017684
     42 C14         6.2410    0.0750   -2.1090 c3        1 MOL     -0.073133
     43 C15         5.2990    1.1230   -2.6910 c         1 MOL      0.559264
     44 O9          5.6490    1.7620   -3.7040 o         1 MOL     -0.594673
     45 H17         6.0010   -1.0290   -0.2600 hn        1 MOL      0.057778
     46 H18         6.8100   -0.4010   -2.9090 h1        1 MOL      0.058429
     47 H19         6.9970    0.6820   -1.6180 h1        1 MOL      0.058429
     48 N5          4.0570    1.1820   -2.1930 n         1 MOL     -0.323026
     49 C16         3.0220    2.1490   -2.6550 c3        1 MOL      0.279089
     50 C17         2.9090    3.4060   -1.7910 c         1 MOL      0.344658
     51 O10         3.2770    3.4320   -0.6060 o         1 MOL     -0.497161
     52 C18         1.6590    1.4270   -2.7140 c3        1 MOL     -0.486632
     53 C19         1.6650    0.2610   -3.6680 c         1 MOL      0.738669
     54 N6          1.8770    0.5140   -4.9660 n         1 MOL     -0.937608
     55 O11         1.6620   -0.8970   -3.2610 o         1 MOL     -0.498134
     56 H20         3.7900    0.4860   -1.5170 hn        1 MOL      0.162299
     57 H21         3.2740    2.4960   -3.6590 h1        1 MOL     -0.024575
     58 H22         0.8690    2.1450   -2.9500 hc        1 MOL      0.178358
     59 H23         1.4610    1.0970   -1.7000 hc        1 MOL      0.178358
     60 H24         2.0920    1.4600   -5.2510 hn        1 MOL      0.396909
     61 H25         2.0110   -0.1810   -5.6900 hn        1 MOL      0.396909
     62 N7          2.3960    4.5160   -2.3820 n         1 MOL     -0.201271
     63 C20         2.6080    5.8310   -1.8570 c3        1 MOL     -0.154256
     64 C21         1.2570    6.6230   -2.0710 c         1 MOL      0.371355
     65 O12         0.6230    6.4460   -3.1200 o         1 MOL     -0.483165
     66 H26         2.2880    4.4820   -3.3820 hn        1 MOL      0.208648
     67 H27         3.4090    6.3270   -2.4130 h1        1 MOL      0.109289
     68 H28         3.0110    5.7390   -0.8560 h1        1 MOL      0.109289
     69 N8          0.8290    7.3810   -1.0510 n         1 MOL     -0.210919
     70 C22        -0.5590    7.7620   -0.8680 c3        1 MOL     -0.057890
     71 C23        -1.4180    6.7930   -0.0110 c         1 MOL      0.369496
     72 O13        -2.4460    7.0830    0.4380 o         1 MOL     -0.531289
     73 C24        -0.6800    9.2230   -0.2770 c3        1 MOL      0.392678
     74 C25         0.0600    9.4080    1.0920 c3        1 MOL     -0.327903
     75 O14        -0.0100   10.1150   -1.1140 oh        1 MOL     -0.648332
     76 H29         1.5230    7.6680   -0.3750 hn        1 MOL      0.222629
     77 H30        -0.9840    7.9210   -1.8560 h1        1 MOL      0.112715
     78 H31        -1.7190    9.5160   -0.0970 h1        1 MOL     -0.003832
     79 H32         0.0030   10.9420   -0.6310 ho        1 MOL      0.393695
     80 H33        -0.3610   10.2730    1.6130 hc        1 MOL      0.072573
     81 H34        -0.0780    8.5460    1.7430 hc        1 MOL      0.072573
     82 H35         1.1360    9.4450    0.9590 hc        1 MOL      0.072573
     83 N9         -0.8550    5.6430    0.1760 n         1 MOL      0.027776
     84 C26        -1.3130    4.5270    0.9730 c3        1 MOL     -0.054641
     85 C27        -1.3000    3.2520    0.0990 c         1 MOL      0.400832
     86 O15        -0.5210    3.1840   -0.8660 o         1 MOL     -0.461698
     87 C28        -0.4620    4.3130    2.2150 c3        1 MOL      0.099217
     88 C29         1.0180    4.0290    1.8610 c3        1 MOL     -0.246616
     89 C30        -0.5440    5.4700    3.2560 c3        1 MOL     -0.076329
     90 C31         2.1300    4.0650    2.9510 c3        1 MOL     -0.316164
     91 H36         0.0840    5.5330   -0.1760 hn        1 MOL     -0.040217
     92 H37        -2.3220    4.7810    1.3110 h1        1 MOL      0.060323
     93 H38        -0.7520    3.4150    2.7560 hc        1 MOL     -0.008175
     94 H39         1.3280    4.6700    1.0400 hc        1 MOL      0.201229
     95 H40         1.1340    3.0230    1.4710 hc        1 MOL      0.201229
     96 H41         0.0370    5.1930    4.1350 hc        1 MOL      0.013683
     97 H42        -0.2180    6.4010    2.8040 hc        1 MOL      0.013683
     98 H43        -1.5730    5.6630    3.5860 hc        1 MOL      0.013683
     99 H44         3.0940    3.7840    2.5230 hc        1 MOL      0.098130
    100 H45         2.3140    5.0440    3.4070 hc        1 MOL      0.098130
    101 H46         1.9560    3.3150    3.7290 hc        1 MOL      0.098130
    102 N10        -2.1300    2.2580    0.4290 n         1 MOL     -0.431330
    103 C32        -2.2170    1.0500   -0.4320 c3        1 MOL      0.009941
    104 C33        -3.6400    0.3450   -0.4670 c         1 MOL      0.397355
    105 O16        -3.7600   -0.9120   -0.4990 o         1 MOL     -0.441523
    106 C34        -1.1820    0.0030    0.0850 c3        1 MOL      0.016258
    107 C35        -0.6310   -0.9120   -1.0140 c         1 MOL      0.632151
    108 O17         0.3290   -1.6490   -0.7650 o         1 MOL     -0.758860
    109 O18        -1.1670   -0.8880   -2.1540 o         1 MOL     -0.758860
    110 H47        -2.8320    2.3470    1.1440 hn        1 MOL      0.270136
    111 H48        -1.9520    1.3140   -1.4570 h1        1 MOL      0.089671
    112 H49        -1.6390   -0.5970    0.8760 hc        1 MOL      0.021416
    113 H50        -0.3230    0.5990    0.3870 hc        1 MOL      0.021416
    114 N11        -4.7300    1.0930   -0.3880 n         1 MOL     -0.338918
    115 C36        -6.0420    0.5110   -0.4540 c3        1 MOL      0.137506
    116 C37        -6.3010   -0.6160    0.6120 c         1 MOL      0.455750
    117 O19        -6.0440   -0.3750    1.7810 o         1 MOL     -0.534898
    118 C38        -7.0510    1.6270   -0.3680 c3        1 MOL     -0.299579
    119 C39        -8.4010    1.1560    0.0590 ca        1 MOL      0.231123
    120 C40        -9.2460    0.6450   -0.9600 ca        1 MOL     -0.314442
    121 C41        -8.7970    1.0960    1.4250 ca        1 MOL     -0.314442
    122 C42       -10.3960   -0.0070   -0.5470 ca        1 MOL      0.023461
    123 C43        -9.9510    0.3890    1.7810 ca        1 MOL      0.023461
    124 C44       -10.7890   -0.0840    0.7800 ca        1 MOL     -0.235678
    125 H51        -4.6150    2.1050   -0.3590 hn        1 MOL      0.247611
    126 H52        -6.1800    0.0780   -1.4500 h1        1 MOL      0.024109
    127 H53        -7.2250    1.9810   -1.3780 hc        1 MOL      0.098295
    128 H54        -6.6720    2.4100    0.2900 hc        1 MOL      0.098295
    129 H55        -8.8560    0.6110   -1.9660 ha        1 MOL      0.166703
    130 H56        -8.2300    1.5990    2.1920 ha        1 MOL      0.166703
    131 H57       -10.9300   -0.4920   -1.3530 ha        1 MOL      0.084045
    132 H58       -10.3400    0.2760    2.7820 ha        1 MOL      0.084045
    133 H59       -11.6610   -0.6680    1.0590 ha        1 MOL      0.120106
    134 N12        -6.8410   -1.7910    0.2510 n         1 MOL     -0.063216
    135 C45        -7.2630   -2.7550    1.3320 c3        1 MOL      0.182401
    136 C46        -6.0960   -3.2510    2.2250 c         1 MOL      0.150502
    137 O20        -6.2430   -3.6220    3.4020 o         1 MOL     -0.498790
    138 C47        -7.9110   -3.9280    0.5430 c3        1 MOL     -0.231731
    139 C48        -7.1280   -3.8810   -0.7740 c3        1 MOL      0.128537
    140 C49        -7.0810   -2.3360   -1.1070 c3        1 MOL     -0.241166
    141 H60        -8.0280   -2.2790    1.9480 h1        1 MOL      0.057057
    142 H61        -7.7600   -4.8730    1.0550 hc        1 MOL      0.068188
    143 H62        -8.9560   -3.6460    0.3830 hc        1 MOL      0.068188
    144 H63        -6.1200   -4.3060   -0.7500 hc        1 MOL      0.004642
    145 H64        -7.6050   -4.4310   -1.5820 hc        1 MOL      0.004642
    146 H65        -6.2930   -2.1120   -1.8150 h1        1 MOL      0.076381
    147 H66        -8.0620   -2.0330   -1.4770 h1        1 MOL      0.076381
    148 N13        -4.8680   -3.1670    1.7050 n         1 MOL      0.127235
    149 C50        -3.6860   -3.5960    2.4850 c3        1 MOL     -0.577586
    150 C51        -3.3140   -2.6880    3.6490 c         1 MOL      0.568764
    151 O21        -2.6100   -3.0700    4.5820 o         1 MOL     -0.552329
    152 C52        -2.4320   -3.9190    1.5680 c3        1 MOL      0.017420
    153 C53        -2.8720   -4.4750    0.2320 c3        1 MOL     -0.013727
    154 C54        -1.7430   -5.2160   -0.5350 c         1 MOL      0.517677
    155 O22        -0.9770   -4.5450   -1.3070 o         1 MOL     -0.652239
    156 O23        -1.5470   -6.4200   -0.3870 o         1 MOL     -0.652239
    157 H67        -4.7250   -2.7410    0.7950 hn        1 MOL      0.231083
    158 H68        -3.9830   -4.5370    2.9510 h1        1 MOL      0.229425
    159 H69        -1.7010   -4.6040    2.0020 hc        1 MOL      0.099840
    160 H70        -1.9540   -2.9650    1.3200 hc        1 MOL      0.099840
    161 H71        -3.4390   -3.7210   -0.3210 hc        1 MOL     -0.032125
    162 H72        -3.5820   -5.2700    0.4530 hc        1 MOL     -0.032125
    163 N14        -3.8920   -1.4930    3.5780 n         1 MOL     -0.122980
    164 C55        -3.6710   -0.4710    4.6070 c3        1 MOL     -0.318512
    165 H73        -3.5540   -0.9530    5.5780 h1        1 MOL      0.111512
    166 H74        -2.7690    0.0940    4.3710 h1        1 MOL      0.111512
    167 H75        -4.5260    0.2040    4.6380 h1        1 MOL      0.111512
    168 H76        -4.3850   -1.1750    2.7500 hn        1 MOL      0.186190
    169 Ca1         0.0760   -3.0720   -3.0610 Ca        1 MOL      1.664644
    170 O24         0.2830   -2.2720   -5.6470 oh        1 MOL     -0.798936
    171 H77        -0.3320   -1.7810   -6.2000 ho        1 MOL      0.393056
    172 H78         1.0780   -2.3230   -6.1780 ho        1 MOL      0.393056
    173 O25        -2.2230   -3.5440   -4.3020 oh        1 MOL     -0.798936
    174 H79        -2.9150   -2.8850   -4.3150 ho        1 MOL      0.393056
    175 H80        -2.2400   -3.9340   -5.1710 ho        1 MOL      0.393056
    176 O26         0.0990   -5.1750   -4.7360 oh        1 MOL     -0.798936
    177 H81         0.1600   -6.1270   -4.6730 ho        1 MOL      0.393056
    178 H82        -0.5890   -5.0210   -5.3810 ho        1 MOL      0.393056
@<TRIPOS>BOND
     1    1    2 1   
     2    1    4 1   
     3    1    5 1   
     4    1    6 1   
     5    2    3 2   
     6    2    7 1   
     7    7    8 1   
     8    7   15 1   
     9    8    9 1   
    10    8   11 1   
    11    8   16 1   
    12    9   10 2   
    13    9   19 1   
    14   11   12 1   
    15   11   17 1   
    16   11   18 1   
    17   12   13 1   
    18   12   14 1   
    19   19   20 1   
    20   19   24 1   
    21   20   21 1   
    22   20   23 1   
    23   20   25 1   
    24   21   22 2   
    25   21   29 1   
    26   23   26 1   
    27   23   27 1   
    28   23   28 1   
    29   29   30 1   
    30   29   37 1   
    31   30   31 1   
    32   30   33 1   
    33   30   38 1   
    34   31   32 2   
    35   31   41 1   
    36   33   34 1   
    37   33   39 1   
    38   33   40 1   
    39   34   35 1   
    40   34   36 1   
    41   41   42 1   
    42   41   45 1   
    43   42   43 1   
    44   42   46 1   
    45   42   47 1   
    46   43   44 2   
    47   43   48 1   
    48   48   49 1   
    49   48   56 1   
    50   49   50 1   
    51   49   52 1   
    52   49   57 1   
    53   50   51 2   
    54   50   62 1   
    55   52   53 1   
    56   52   58 1   
    57   52   59 1   
    58   53   54 1   
    59   53   55 2   
    60   54   60 1   
    61   54   61 1   
    62   62   63 1   
    63   62   66 1   
    64   63   64 1   
    65   63   67 1   
    66   63   68 1   
    67   64   65 2   
    68   64   69 1   
    69   69   70 1   
    70   69   76 1   
    71   70   71 1   
    72   70   73 1   
    73   70   77 1   
    74   71   72 2   
    75   71   83 1   
    76   73   74 1   
    77   73   75 1   
    78   73   78 1   
    79   74   80 1   
    80   74   81 1   
    81   74   82 1   
    82   75   79 1   
    83   83   84 1   
    84   83   91 1   
    85   84   85 1   
    86   84   87 1   
    87   84   92 1   
    88   85   86 2   
    89   85  102 1   
    90   87   88 1   
    91   87   89 1   
    92   87   93 1   
    93   88   90 1   
    94   88   94 1   
    95   88   95 1   
    96   89   96 1   
    97   89   97 1   
    98   89   98 1   
    99   90   99 1   
   100   90  100 1   
   101   90  101 1   
   102  102  103 1   
   103  102  110 1   
   104  103  104 1   
   105  103  106 1   
   106  103  111 1   
   107  104  105 2   
   108  104  114 1   
   109  106  107 1   
   110  106  112 1   
   111  106  113 1   
   112  107  108 1   
   113  107  109 1   
   114  114  115 1   
   115  114  125 1   
   116  115  116 1   
   117  115  118 1   
   118  115  126 1   
   119  116  117 2   
   120  116  134 1   
   121  118  119 1   
   122  118  127 1   
   123  118  128 1   
   124  119  120 ar  
   125  119  121 ar  
   126  120  122 ar  
   127  120  129 1   
   128  121  123 ar  
   129  121  130 1   
   130  122  124 ar  
   131  122  131 1   
   132  123  124 ar  
   133  123  132 1   
   134  124  133 1   
   135  134  135 1   
   136  134  140 1   
   137  135  136 1   
   138  135  138 1   
   139  135  141 1   
   140  136  137 2   
   141  136  148 1   
   142  138  139 1   
   143  138  142 1   
   144  138  143 1   
   145  139  140 1   
   146  139  144 1   
   147  139  145 1   
   148  140  146 1   
   149  140  147 1   
   150  148  149 1   
   151  148  157 1   
   152  149  150 1   
   153  149  152 1   
   154  149  158 1   
   155  150  151 2   
   156  150  163 1   
   157  152  153 1   
   158  152  159 1   
   159  152  160 1   
   160  153  154 1   
   161  153  161 1   
   162  153  162 1   
   163  154  155 1   
   164  154  156 1   
   165  163  164 1   
   166  163  168 1   
   167  164  165 1   
   168  164  166 1   
   169  164  167 1   
   170  170  171 1   
   171  170  172 1   
   172  173  174 1   
   173  173  175 1   
   174  176  177 1   
   175  176  178 1   
@<TRIPOS>SUBSTRUCTURE
     1 MOL         1 TEMP              0 ****  ****    0 ROOT
