@<TRIPOS>MOLECULE
MOL
  181   177     1     0     0
SMALL
resp


@<TRIPOS>ATOM
      1 C1          7.0800    1.9450    6.1130 c3        1 MOL     -0.350193
      2 C2          6.2370    1.1630    5.0550 c         1 MOL      0.702431
      3 O1          5.0430    1.2550    5.1860 o         1 MOL     -0.558489
      4 H1          7.1250    2.9990    5.8360 hc        1 MOL      0.089032
      5 H2          6.6140    1.8480    7.0940 hc        1 MOL      0.089032
      6 H3          8.0900    1.5370    6.1490 hc        1 MOL      0.089032
      7 N1          6.7560    0.4280    4.0220 n         1 MOL     -0.514896
      8 C3          8.1190    0.0610    3.7730 c3        1 MOL      0.117536
      9 C4          8.2180   -1.3650    3.1850 c         1 MOL      0.518483
     10 O2          7.2150   -2.0880    3.2340 o         1 MOL     -0.477273
     11 C5          8.7760    1.1310    2.7960 c3        1 MOL     -0.214398
     12 C6          8.0450    1.3210    1.4920 c         1 MOL      0.684364
     13 O3          7.3080    2.3120    1.2910 o         1 MOL     -0.682269
     14 O4          8.1490    0.3820    0.7100 o         1 MOL     -0.682269
     15 H4          6.0610   -0.1270    3.5470 hn        1 MOL      0.307939
     16 H5          8.7460    0.0760    4.6660 h1        1 MOL      0.042519
     17 H6          9.7840    0.8280    2.5180 hc        1 MOL      0.017632
     18 H7          8.7790    2.0030    3.4510 hc        1 MOL      0.017632
     19 N2          9.3630   -1.6980    2.5630 n         1 MOL     -0.699230
     20 C7          9.6690   -2.9310    1.9060 c3        1 MOL      0.522990
     21 C8          8.5890   -3.5280    0.8770 c         1 MOL      0.156351
     22 O5          8.6910   -4.7430    0.5700 o         1 MOL     -0.519473
     23 C9         10.1420   -3.9370    2.9650 c3        1 MOL     -0.314660
     24 H8         10.0840   -0.9990    2.4680 hn        1 MOL      0.349421
     25 H9         10.5110   -2.6960    1.2510 h1        1 MOL     -0.029451
     26 H10        10.5810   -4.8300    2.5170 hc        1 MOL      0.073862
     27 H11        10.9720   -3.4130    3.4480 hc        1 MOL      0.073862
     28 H12         9.3150   -4.0970    3.6540 hc        1 MOL      0.073862
     29 N3          7.5800   -2.7590    0.4740 n         1 MOL     -0.006447
     30 C10         6.5200   -3.2570   -0.4300 c3        1 MOL      0.151554
     31 C11         6.5060   -2.4020   -1.6910 c         1 MOL      0.395346
     32 O6          6.9190   -1.2310   -1.6800 o         1 MOL     -0.619468
     33 C12         5.1660   -3.1090    0.2920 c3        1 MOL      0.035977
     34 C13         4.7000   -1.7560    0.8720 c         1 MOL      0.592712
     35 O7          3.7770   -1.8120    1.7830 o         1 MOL     -0.650211
     36 O8          5.1940   -0.6850    0.4510 o         1 MOL     -0.650211
     37 H13         7.5970   -1.7720    0.6980 hn        1 MOL      0.091709
     38 H14         6.7320   -4.2770   -0.7370 h1        1 MOL      0.002595
     39 H15         5.0790   -3.8990    1.0350 hc        1 MOL     -0.014339
     40 H16         4.4130   -3.2970   -0.4680 hc        1 MOL     -0.014339
     41 N4          6.0300   -3.0080   -2.7810 n         1 MOL     -0.286805
     42 C14         5.8540   -2.2670   -4.0180 c3        1 MOL     -0.271502
     43 C15         4.5060   -1.5380   -4.1920 c         1 MOL      0.608432
     44 O9          4.3320   -0.7490   -5.0980 o         1 MOL     -0.543628
     45 H17         5.7700   -3.9720   -2.6200 hn        1 MOL      0.272931
     46 H18         5.9550   -2.9040   -4.9010 h1        1 MOL      0.142568
     47 H19         6.6100   -1.4790   -4.0800 h1        1 MOL      0.142568
     48 N5          3.5240   -1.8690   -3.3260 n         1 MOL     -0.468343
     49 C16         2.3710   -1.0810   -3.2090 c3        1 MOL      0.030525
     50 C17         2.6630    0.2860   -2.5270 c         1 MOL      0.463867
     51 O10         3.7390    0.5610   -1.9740 o         1 MOL     -0.512275
     52 C18         1.4890   -1.8850   -2.3160 c3        1 MOL     -0.122667
     53 C19         0.6760   -3.0100   -2.9650 c         1 MOL      0.654047
     54 N6         -0.2600   -3.6240   -2.3040 n         1 MOL     -0.827389
     55 O11         0.8260   -3.3220   -4.1220 o         1 MOL     -0.561436
     56 H20         3.6280   -2.5460   -2.5820 hn        1 MOL      0.298374
     57 H21         1.9280   -0.8990   -4.1860 h1        1 MOL      0.103854
     58 H22         0.7210   -1.3080   -1.7990 hc        1 MOL      0.040809
     59 H23         2.0380   -2.3750   -1.5110 hc        1 MOL      0.040809
     60 H24        -0.4600   -3.4510   -1.3250 hn        1 MOL      0.396906
     61 H25        -0.8500   -4.1770   -2.8980 hn        1 MOL      0.396906
     62 N7          1.6220    1.0880   -2.5240 n         1 MOL     -0.409207
     63 C20         1.5250    2.4430   -1.9450 c3        1 MOL      0.073543
     64 C21         1.5010    3.5430   -3.0110 c         1 MOL      0.621815
     65 O12         2.1160    3.3910   -4.0920 o         1 MOL     -0.589523
     66 H26         0.9390    0.8880   -3.2380 hn        1 MOL      0.293882
     67 H27         2.3920    2.6550   -1.3250 h1        1 MOL      0.032878
     68 H28         0.6270    2.4120   -1.3220 h1        1 MOL      0.032878
     69 N8          0.8300    4.6800   -2.7830 n         1 MOL     -0.549251
     70 C22         0.3750    5.1140   -1.4580 c3        1 MOL      0.063246
     71 C23        -0.9150    4.4140   -0.9960 c         1 MOL      0.496484
     72 O13        -1.9460    4.5580   -1.6660 o         1 MOL     -0.532364
     73 C24         0.1970    6.6120   -1.3530 c3        1 MOL      0.236629
     74 C25        -0.3750    7.1510    0.0210 c3        1 MOL     -0.271559
     75 O14         1.4940    7.1560   -1.5670 oh        1 MOL     -0.624481
     76 H29         0.6930    5.3090   -3.5530 hn        1 MOL      0.340394
     77 H30         1.1710    4.9960   -0.7240 h1        1 MOL      0.088388
     78 H31        -0.4790    6.9340   -2.1510 h1        1 MOL      0.032731
     79 H32         1.4690    8.1110   -1.4170 ho        1 MOL      0.390382
     80 H33         0.0920    6.5530    0.8060 hc        1 MOL      0.088809
     81 H34        -0.1670    8.2130    0.1580 hc        1 MOL      0.088809
     82 H35        -1.4420    6.9470    0.0020 hc        1 MOL      0.088809
     83 N9         -0.9910    3.7090    0.1290 n         1 MOL     -0.430632
     84 C26        -2.2720    3.1360    0.6860 c3        1 MOL     -0.007317
     85 C27        -3.1940    4.2940    1.2470 c         1 MOL      0.606617
     86 O15        -2.8040    5.2150    2.0020 o         1 MOL     -0.612210
     87 C28        -1.9820    1.9910    1.6380 c3        1 MOL      0.045909
     88 C29        -1.0300    0.9870    1.0210 c3        1 MOL      0.162976
     89 C30        -3.2650    1.2970    2.2080 c3        1 MOL     -0.236646
     90 C31        -0.4510   -0.1920    1.8120 c3        1 MOL     -0.208597
     91 H36        -0.1500    3.5930    0.6650 hn        1 MOL      0.230803
     92 H37        -2.8000    2.6330   -0.1180 h1        1 MOL      0.124279
     93 H38        -1.4180    2.4130    2.4700 hc        1 MOL      0.011140
     94 H39        -0.1050    1.5100    0.7920 hc        1 MOL     -0.040396
     95 H40        -1.4080    0.7060    0.0340 hc        1 MOL     -0.040396
     96 H41        -3.8170    0.8780    1.3700 hc        1 MOL      0.063686
     97 H42        -2.9900    0.5390    2.9310 hc        1 MOL      0.063686
     98 H43        -3.9400    2.0160    2.6830 hc        1 MOL      0.063686
     99 H44         0.4790   -0.5740    1.4110 hc        1 MOL      0.057059
    100 H45        -0.3240    0.0940    2.8550 hc        1 MOL      0.057059
    101 H46        -1.1550   -1.0330    1.8080 hc        1 MOL      0.057059
    102 N10        -4.4870    4.2510    1.0920 n         1 MOL     -0.471460
    103 C32        -5.3480    3.5070    0.1730 c3        1 MOL      0.155782
    104 C33        -6.4610    2.7090    0.8990 c         1 MOL      0.741897
    105 O16        -6.4620    2.6110    2.1540 o         1 MOL     -0.579741
    106 C34        -5.9410    4.5090   -0.8750 c3        1 MOL     -0.315086
    107 C35        -6.8110    5.6030   -0.2420 c         1 MOL      0.747979
    108 O17        -6.2560    6.5420    0.3220 o         1 MOL     -0.725309
    109 O18        -8.0260    5.5190   -0.1500 o         1 MOL     -0.725309
    110 H47        -4.9890    4.9000    1.6770 hn        1 MOL      0.329054
    111 H48        -4.6930    2.7790   -0.3150 h1        1 MOL      0.006471
    112 H49        -6.5150    3.9350   -1.6020 hc        1 MOL      0.049550
    113 H50        -5.2080    5.0020   -1.5180 hc        1 MOL      0.049550
    114 N11        -7.1860    1.9330    0.0770 n         1 MOL     -0.751602
    115 C36        -7.8620    0.6710    0.4780 c3        1 MOL      0.249796
    116 C37        -8.0430   -0.2200   -0.8040 c         1 MOL      0.350391
    117 O19        -8.3310    0.3070   -1.8760 o         1 MOL     -0.514343
    118 C38        -9.1890    1.1850    1.0200 c3        1 MOL     -0.256954
    119 C39       -10.0190    0.1050    1.6360 ca        1 MOL      0.130650
    120 C40       -11.2780   -0.1250    1.0990 ca        1 MOL     -0.147107
    121 C41        -9.5530   -0.5590    2.8180 ca        1 MOL     -0.147107
    122 C42       -12.0550   -1.2030    1.5700 ca        1 MOL     -0.132380
    123 C43       -10.4390   -1.4790    3.4170 ca        1 MOL     -0.132380
    124 C44       -11.6640   -1.8680    2.7230 ca        1 MOL     -0.135016
    125 H51        -7.1290    2.1400   -0.9120 hn        1 MOL      0.367591
    126 H52        -7.3050    0.1430    1.2500 h1        1 MOL      0.066477
    127 H53        -9.6940    1.6220    0.1630 hc        1 MOL      0.111877
    128 H54        -8.9040    1.9390    1.7630 hc        1 MOL      0.111877
    129 H55       -11.4920    0.4770    0.2310 ha        1 MOL      0.118555
    130 H56        -8.5820   -0.2560    3.1620 ha        1 MOL      0.118555
    131 H57       -13.0120   -1.4470    1.1420 ha        1 MOL      0.105762
    132 H58       -10.1700   -2.1320    4.2270 ha        1 MOL      0.105762
    133 H59       -12.2940   -2.5990    3.2040 ha        1 MOL      0.102237
    134 N12        -7.9390   -1.5610   -0.7720 n         1 MOL      0.083580
    135 C45        -7.5220   -2.4680    0.2930 c3        1 MOL     -0.050897
    136 C46        -6.0140   -2.5700    0.3330 c         1 MOL      0.494058
    137 O20        -5.2600   -1.6020    0.2040 o         1 MOL     -0.600928
    138 C47        -8.3060   -3.7620   -0.0660 c3        1 MOL     -0.334839
    139 C48        -8.3560   -3.7990   -1.6020 c3        1 MOL      0.255561
    140 C49        -8.4170   -2.3070   -1.9320 c3        1 MOL     -0.247357
    141 H60        -7.8300   -2.1070    1.2750 h1        1 MOL      0.009864
    142 H61        -7.7860   -4.6650    0.2380 hc        1 MOL      0.087614
    143 H62        -9.3410   -3.6840    0.2610 hc        1 MOL      0.087614
    144 H63        -7.4290   -4.2050   -2.0040 hc        1 MOL     -0.009448
    145 H64        -9.2200   -4.3630   -1.9670 hc        1 MOL     -0.009448
    146 H65        -7.7520   -2.0730   -2.7590 h1        1 MOL      0.082454
    147 H66        -9.4530   -2.0050   -2.1280 h1        1 MOL      0.082454
    148 N13        -5.4240   -3.7590    0.5370 n         1 MOL      0.013283
    149 C50        -3.9490   -3.9530    0.4080 c3        1 MOL      0.097493
    150 C51        -3.3740   -4.7000    1.6380 c         1 MOL      0.444239
    151 O21        -2.4360   -5.5280    1.5130 o         1 MOL     -0.539308
    152 C52        -3.6170   -4.3640   -1.0600 c3        1 MOL     -0.333874
    153 C53        -4.0850   -5.8130   -1.3420 c3        1 MOL     -0.222828
    154 C54        -5.4250   -6.0350   -1.9880 c         1 MOL      0.697900
    155 O22        -6.3380   -6.7490   -1.4790 o         1 MOL     -0.723647
    156 O23        -5.6370   -5.5410   -3.1320 o         1 MOL     -0.723647
    157 H67        -5.9790   -4.5180    0.9100 hn        1 MOL      0.135752
    158 H68        -3.4280   -2.9970    0.3700 h1        1 MOL      0.033803
    159 H69        -2.5570   -4.2880   -1.2960 hc        1 MOL      0.130517
    160 H70        -4.1820   -3.7200   -1.7250 hc        1 MOL      0.130517
    161 H71        -4.0320   -6.3990   -0.4210 hc        1 MOL      0.052847
    162 H72        -3.3550   -6.2460   -2.0230 hc        1 MOL      0.052847
    163 N14        -3.8580   -4.4490    2.8830 n         1 MOL     -0.452415
    164 C55        -4.8500   -3.4310    3.3970 c3        1 MOL      0.031025
    165 H73        -5.3030   -2.9090    2.5550 h1        1 MOL      0.031970
    166 H74        -5.6270   -3.9380    3.9700 h1        1 MOL      0.031970
    167 H75        -4.3370   -2.7130    4.0370 h1        1 MOL      0.031970
    168 H76        -3.6530   -5.1260    3.5900 hn        1 MOL      0.295994
    169 Ca1         6.2730    1.2220   -0.9250 Ca        1 MOL      1.704423
    170 O24         5.9240    1.6240   -3.5640 oh        1 MOL     -0.788477
    171 H77         6.1650    1.1740   -4.3640 ho        1 MOL      0.394864
    172 H78         5.5310    2.4420   -3.8490 ho        1 MOL      0.394864
    173 O25         4.4320    2.2900    0.6480 oh        1 MOL     -0.788477
    174 H79         3.9770    1.5110    0.9690 ho        1 MOL      0.394864
    175 H80         4.2120    2.9790    1.2840 ho        1 MOL      0.394864
    176 O26         8.7890    1.9730   -1.5940 oh        1 MOL     -0.788477
    177 H81         9.1790    1.8720   -2.4660 ho        1 MOL      0.394864
    178 H82         9.5330    1.9550   -1.0020 ho        1 MOL      0.394864
    179 O27         6.0240    3.7500   -1.6510 oh        1 MOL     -0.788477
    180 H83         5.1820    4.1740   -1.8510 ho        1 MOL      0.394864
    181 H84         6.6100    4.0390   -2.3450 ho        1 MOL      0.394864
@<TRIPOS>BOND
     1    1    2 1   
     2    1    4 1   
     3    1    5 1   
     4    1    6 1   
     5    2    3 2   
     6    2    7 1   
     7    7    8 1   
     8    7   15 1   
     9    8    9 1   
    10    8   11 1   
    11    8   16 1   
    12    9   10 2   
    13    9   19 1   
    14   11   12 1   
    15   11   17 1   
    16   11   18 1   
    17   12   13 1   
    18   12   14 1   
    19   19   20 1   
    20   19   24 1   
    21   20   21 1   
    22   20   23 1   
    23   20   25 1   
    24   21   22 2   
    25   21   29 1   
    26   23   26 1   
    27   23   27 1   
    28   23   28 1   
    29   29   30 1   
    30   29   37 1   
    31   30   31 1   
    32   30   33 1   
    33   30   38 1   
    34   31   32 2   
    35   31   41 1   
    36   33   34 1   
    37   33   39 1   
    38   33   40 1   
    39   34   35 1   
    40   34   36 1   
    41   41   42 1   
    42   41   45 1   
    43   42   43 1   
    44   42   46 1   
    45   42   47 1   
    46   43   44 2   
    47   43   48 1   
    48   48   49 1   
    49   48   56 1   
    50   49   50 1   
    51   49   52 1   
    52   49   57 1   
    53   50   51 2   
    54   50   62 1   
    55   52   53 1   
    56   52   58 1   
    57   52   59 1   
    58   53   54 1   
    59   53   55 2   
    60   54   60 1   
    61   54   61 1   
    62   62   63 1   
    63   62   66 1   
    64   63   64 1   
    65   63   67 1   
    66   63   68 1   
    67   64   65 2   
    68   64   69 1   
    69   69   70 1   
    70   69   76 1   
    71   70   71 1   
    72   70   73 1   
    73   70   77 1   
    74   71   72 2   
    75   71   83 1   
    76   73   74 1   
    77   73   75 1   
    78   73   78 1   
    79   74   80 1   
    80   74   81 1   
    81   74   82 1   
    82   75   79 1   
    83   83   84 1   
    84   83   91 1   
    85   84   85 1   
    86   84   87 1   
    87   84   92 1   
    88   85   86 2   
    89   85  102 1   
    90   87   88 1   
    91   87   89 1   
    92   87   93 1   
    93   88   90 1   
    94   88   94 1   
    95   88   95 1   
    96   89   96 1   
    97   89   97 1   
    98   89   98 1   
    99   90   99 1   
   100   90  100 1   
   101   90  101 1   
   102  102  103 1   
   103  102  110 1   
   104  103  104 1   
   105  103  106 1   
   106  103  111 1   
   107  104  105 2   
   108  104  114 1   
   109  106  107 1   
   110  106  112 1   
   111  106  113 1   
   112  107  108 1   
   113  107  109 1   
   114  114  115 1   
   115  114  125 1   
   116  115  116 1   
   117  115  118 1   
   118  115  126 1   
   119  116  117 2   
   120  116  134 1   
   121  118  119 1   
   122  118  127 1   
   123  118  128 1   
   124  119  120 ar  
   125  119  121 ar  
   126  120  122 ar  
   127  120  129 1   
   128  121  123 ar  
   129  121  130 1   
   130  122  124 ar  
   131  122  131 1   
   132  123  124 ar  
   133  123  132 1   
   134  124  133 1   
   135  134  135 1   
   136  134  140 1   
   137  135  136 1   
   138  135  138 1   
   139  135  141 1   
   140  136  137 2   
   141  136  148 1   
   142  138  139 1   
   143  138  142 1   
   144  138  143 1   
   145  139  140 1   
   146  139  144 1   
   147  139  145 1   
   148  140  146 1   
   149  140  147 1   
   150  148  149 1   
   151  148  157 1   
   152  149  150 1   
   153  149  152 1   
   154  149  158 1   
   155  150  151 2   
   156  150  163 1   
   157  152  153 1   
   158  152  159 1   
   159  152  160 1   
   160  153  154 1   
   161  153  161 1   
   162  153  162 1   
   163  154  155 1   
   164  154  156 1   
   165  163  164 1   
   166  163  168 1   
   167  164  165 1   
   168  164  166 1   
   169  164  167 1   
   170  170  171 1   
   171  170  172 1   
   172  173  174 1   
   173  173  175 1   
   174  176  177 1   
   175  176  178 1   
   176  179  180 1   
   177  179  181 1   
@<TRIPOS>SUBSTRUCTURE
     1 MOL         1 TEMP              0 ****  ****    0 ROOT
