@<TRIPOS>MOLECULE
MOL
  181   177     1     0     0
SMALL
resp


@<TRIPOS>ATOM
      1 C1          5.0620   -1.5620    2.5150 c3        1 MOL     -0.290492
      2 C2          6.2230   -0.5920    2.4480 c         1 MOL      0.683076
      3 O1          6.0950    0.4910    1.9350 o         1 MOL     -0.634493
      4 H1          4.1720   -1.0930    2.0950 hc        1 MOL      0.078658
      5 H2          5.3020   -2.4590    1.9440 hc        1 MOL      0.078658
      6 H3          4.8730   -1.8320    3.5540 hc        1 MOL      0.078658
      7 N1          7.4130   -0.9750    2.7470 n         1 MOL     -0.620035
      8 C3          8.6170   -0.2900    2.4650 c3        1 MOL      0.528186
      9 C4          9.0490   -0.4910    1.0420 c         1 MOL      0.432062
     10 O2          9.2480   -1.6280    0.6680 o         1 MOL     -0.536717
     11 C5          9.6330   -0.8810    3.4430 c3        1 MOL     -0.419065
     12 C6         10.8310   -0.0330    3.6030 c         1 MOL      0.787580
     13 O3         11.0940    0.9360    2.8500 o         1 MOL     -0.750429
     14 O4         11.5480   -0.1250    4.6310 o         1 MOL     -0.750429
     15 H4          7.4270   -1.8640    3.2150 hn        1 MOL      0.284485
     16 H5          8.5740    0.7690    2.7040 h1        1 MOL     -0.021824
     17 H6          9.9370   -1.8790    3.1180 hc        1 MOL      0.059323
     18 H7          9.1330   -0.9210    4.3990 hc        1 MOL      0.059323
     19 N2          9.0640    0.6090    0.2700 n         1 MOL     -0.433684
     20 C7          9.1850    0.5580   -1.2240 c3        1 MOL      0.203261
     21 C8          7.9110   -0.0540   -1.8490 c         1 MOL      0.403158
     22 O5          7.8460   -0.2510   -3.0800 o         1 MOL     -0.554146
     23 C9          9.6200    1.9190   -1.7160 c3        1 MOL     -0.327856
     24 H8          9.0460    1.5060    0.7170 hn        1 MOL      0.261731
     25 H9          9.9630   -0.1990   -1.3220 h1        1 MOL      0.073889
     26 H10        10.6020    2.2290   -1.3620 hc        1 MOL      0.092245
     27 H11         9.5700    1.8590   -2.8020 hc        1 MOL      0.092245
     28 H12         8.9360    2.6860   -1.3520 hc        1 MOL      0.092245
     29 N3          6.8560   -0.3300   -1.1130 n         1 MOL     -0.410670
     30 C10         5.5360   -0.8490   -1.5810 c3        1 MOL      0.655292
     31 C11         4.9900   -0.1070   -2.7960 c         1 MOL      0.416242
     32 O6          4.6810   -0.7140   -3.8420 o         1 MOL     -0.516605
     33 C12         5.5780   -2.3960   -1.5780 c3        1 MOL     -0.202555
     34 C13         4.2340   -3.0580   -1.6170 c         1 MOL      0.438861
     35 O7          3.2850   -2.5570   -0.9610 o         1 MOL     -0.639439
     36 O8          3.9570   -4.1090   -2.2550 o         1 MOL     -0.639439
     37 H13         6.9980   -0.1260   -0.1340 hn        1 MOL      0.129306
     38 H14         4.7680   -0.6180   -0.8440 h1        1 MOL     -0.113776
     39 H15         5.8310   -2.7070   -0.5650 hc        1 MOL      0.036666
     40 H16         6.2620   -2.7020   -2.3620 hc        1 MOL      0.036666
     41 N4          4.9070    1.2140   -2.7660 n         1 MOL     -0.266958
     42 C14         4.7740    2.1010   -3.8520 c3        1 MOL     -0.099776
     43 C15         3.3770    2.7380   -4.0120 c         1 MOL      0.589291
     44 O9          3.1710    3.6430   -4.7600 o         1 MOL     -0.581453
     45 H17         5.2070    1.7140   -1.9420 hn        1 MOL      0.213654
     46 H18         5.0660    1.5720   -4.7620 h1        1 MOL      0.084531
     47 H19         5.4700    2.9320   -3.7800 h1        1 MOL      0.084531
     48 N5          2.2750    2.3270   -3.2930 n         1 MOL     -0.419018
     49 C16         0.9600    2.9490   -3.4300 c3        1 MOL      0.163163
     50 C17         0.8530    4.1830   -2.5220 c         1 MOL      0.440692
     51 O10         1.6310    4.3210   -1.5530 o         1 MOL     -0.514704
     52 C18        -0.1030    1.8920   -3.1610 c3        1 MOL     -0.233729
     53 C19        -1.5810    2.3350   -3.4970 c         1 MOL      0.599162
     54 N6         -2.5500    2.4300   -2.5800 n         1 MOL     -0.721206
     55 O11        -1.8720    2.6870   -4.6140 o         1 MOL     -0.580262
     56 H20         2.4690    1.6530   -2.5670 hn        1 MOL      0.208587
     57 H21         0.7430    3.2820   -4.4430 h1        1 MOL      0.044626
     58 H22        -0.0190    1.6840   -2.0950 hc        1 MOL      0.116226
     59 H23         0.1440    0.9300   -3.6040 hc        1 MOL      0.116226
     60 H24        -2.3450    2.1960   -1.6180 hn        1 MOL      0.341322
     61 H25        -3.4470    2.7680   -2.9020 hn        1 MOL      0.341322
     62 N7         -0.0490    5.1650   -2.7560 n         1 MOL     -0.350318
     63 C20        -0.3290    6.2930   -1.8450 c3        1 MOL     -0.003376
     64 C21        -1.4090    6.1240   -0.7900 c         1 MOL      0.647497
     65 O12        -2.3840    5.4710   -1.0250 o         1 MOL     -0.549982
     66 H26        -0.4790    5.0000   -3.6620 hn        1 MOL      0.263063
     67 H27        -0.6330    7.1180   -2.4890 h1        1 MOL      0.041516
     68 H28         0.5780    6.6770   -1.3620 h1        1 MOL      0.041516
     69 N8         -1.2160    6.6500    0.3660 n         1 MOL     -0.537961
     70 C22        -2.2660    6.8550    1.4050 c3        1 MOL     -0.140413
     71 C23        -2.4870    5.6190    2.2420 c         1 MOL      0.329092
     72 O13        -3.3830    5.6020    3.1570 o         1 MOL     -0.551418
     73 C24        -1.9350    8.1030    2.2440 c3        1 MOL      0.460653
     74 C25        -0.6920    7.9690    3.1630 c3        1 MOL     -0.220695
     75 O14        -1.7800    9.1310    1.2330 oh        1 MOL     -0.668408
     76 H29        -0.3990    7.2210    0.4870 hn        1 MOL      0.269010
     77 H30        -3.1850    7.1300    0.8970 h1        1 MOL      0.155942
     78 H31        -2.7990    8.3020    2.8760 h1        1 MOL      0.028640
     79 H32        -1.0090    9.0130    0.6660 ho        1 MOL      0.391538
     80 H33        -0.2040    8.9400    3.1520 hc        1 MOL      0.051250
     81 H34        -1.0690    7.8880    4.1890 hc        1 MOL      0.051250
     82 H35        -0.1100    7.0530    3.0360 hc        1 MOL      0.051250
     83 N9         -1.6960    4.5950    2.0070 n         1 MOL     -0.025126
     84 C26        -1.9510    3.1780    2.3100 c3        1 MOL     -0.020528
     85 C27        -1.7800    2.2520    1.1380 c         1 MOL      0.496466
     86 O15        -1.4050    2.7110   -0.0010 o         1 MOL     -0.492469
     87 C28        -1.3540    2.7220    3.6360 c3        1 MOL      0.259093
     88 C29         0.1780    2.6130    3.6070 c3        1 MOL     -0.167439
     89 C30        -1.7410    3.4090    4.9600 c3        1 MOL     -0.475151
     90 C31         1.0670    3.8960    3.3770 c3        1 MOL     -0.425158
     91 H36        -1.1650    4.7290    1.1520 hn        1 MOL      0.194467
     92 H37        -3.0270    3.1320    2.4780 h1        1 MOL      0.049057
     93 H38        -1.6320    1.6680    3.6760 hc        1 MOL     -0.081313
     94 H39         0.5910    1.9860    2.8200 hc        1 MOL      0.108411
     95 H40         0.5130    2.1530    4.5330 hc        1 MOL      0.108411
     96 H41        -2.8180    3.3290    5.0610 hc        1 MOL      0.124126
     97 H42        -1.2000    2.8930    5.7540 hc        1 MOL      0.124126
     98 H43        -1.3900    4.4400    4.9520 hc        1 MOL      0.124126
     99 H44         0.8080    4.2880    2.3940 hc        1 MOL      0.118060
    100 H45         0.8540    4.6140    4.1730 hc        1 MOL      0.118060
    101 H46         2.0840    3.5140    3.3040 hc        1 MOL      0.118060
    102 N10        -2.2280    1.0070    1.3960 n         1 MOL     -0.514180
    103 C32        -2.2290   -0.0680    0.4480 c3        1 MOL      0.155111
    104 C33        -3.5870   -0.5920    0.0660 c         1 MOL      0.506938
    105 O16        -3.8410   -1.7600   -0.2760 o         1 MOL     -0.499176
    106 C34        -1.2590   -1.1510    0.9280 c3        1 MOL      0.233426
    107 C35        -0.4650   -1.8690   -0.2290 c         1 MOL      0.691517
    108 O17        -0.2680   -1.2430   -1.2670 o         1 MOL     -0.710607
    109 O18         0.1850   -2.8860   -0.1100 o         1 MOL     -0.710607
    110 H47        -2.7320    0.8730    2.2570 hn        1 MOL      0.301608
    111 H48        -1.8370    0.3360   -0.4790 h1        1 MOL     -0.030056
    112 H49        -1.7880   -1.9480    1.4480 hc        1 MOL     -0.082552
    113 H50        -0.5480   -0.7800    1.6800 hc        1 MOL     -0.082552
    114 N11        -4.6780    0.2760    0.2210 n         1 MOL     -0.489810
    115 C36        -6.0730    0.0170   -0.1220 c3        1 MOL      0.405012
    116 C37        -6.6360   -1.2860    0.3940 c         1 MOL      0.144825
    117 O19        -6.6520   -1.4430    1.6430 o         1 MOL     -0.505772
    118 C38        -7.0200    1.1070    0.2860 c3        1 MOL     -0.361630
    119 C39        -8.2750    1.2750   -0.5680 ca        1 MOL      0.196467
    120 C40        -8.3460    2.4140   -1.3820 ca        1 MOL     -0.203990
    121 C41        -9.3810    0.4670   -0.4170 ca        1 MOL     -0.203990
    122 C42        -9.5680    2.7870   -1.9970 ca        1 MOL     -0.075094
    123 C43       -10.5400    0.8440   -1.1020 ca        1 MOL     -0.075094
    124 C44       -10.6480    1.9450   -1.9070 ca        1 MOL     -0.149514
    125 H51        -4.5050    1.1670    0.6530 hn        1 MOL      0.247788
    126 H52        -6.1170   -0.0350   -1.2060 h1        1 MOL     -0.051078
    127 H53        -6.4910    2.0550    0.4040 hc        1 MOL      0.121501
    128 H54        -7.4120    0.9080    1.2830 hc        1 MOL      0.121501
    129 H55        -7.5040    3.0670   -1.5010 ha        1 MOL      0.133422
    130 H56        -9.3730   -0.4500    0.1580 ha        1 MOL      0.133422
    131 H57        -9.6250    3.6650   -2.6170 ha        1 MOL      0.096207
    132 H58       -11.4600    0.2960   -0.9830 ha        1 MOL      0.096207
    133 H59       -11.5860    2.2790   -2.3190 ha        1 MOL      0.110838
    134 N12        -7.1730   -2.2430   -0.4250 n         1 MOL      0.152314
    135 C45        -7.7380   -3.4110    0.2530 c3        1 MOL      0.096537
    136 C46        -6.7320   -4.2810    1.0670 c         1 MOL      0.232137
    137 O20        -7.2590   -5.0580    1.8770 o         1 MOL     -0.490057
    138 C47        -8.3260   -4.2520   -0.8680 c3        1 MOL     -0.104634
    139 C48        -8.6970   -3.3100   -1.9920 c3        1 MOL     -0.057199
    140 C49        -7.5450   -2.2520   -1.8640 c3        1 MOL     -0.146253
    141 H60        -8.5860   -3.0550    0.8370 h1        1 MOL      0.046473
    142 H61        -7.5500   -4.8870   -1.2990 hc        1 MOL      0.060732
    143 H62        -9.1760   -4.8590   -0.5590 hc        1 MOL      0.060732
    144 H63        -8.6080   -3.7780   -2.9740 hc        1 MOL      0.031734
    145 H64        -9.6590   -2.8140   -1.9040 hc        1 MOL      0.031734
    146 H65        -6.6680   -2.6740   -2.3700 h1        1 MOL      0.080027
    147 H66        -7.9010   -1.2570   -2.1250 h1        1 MOL      0.080027
    148 N13        -5.4180   -4.1820    0.8180 n         1 MOL     -0.163011
    149 C50        -4.3630   -4.9790    1.5280 c3        1 MOL     -0.092174
    150 C51        -4.0860   -4.3710    2.8860 c         1 MOL      0.480790
    151 O21        -3.9240   -5.0610    3.8920 o         1 MOL     -0.557253
    152 C52        -3.0970   -4.9400    0.6360 c3        1 MOL      0.131797
    153 C53        -2.0610   -5.9110    1.1440 c3        1 MOL     -0.136842
    154 C54        -0.7670   -5.8720    0.2570 c         1 MOL      0.545790
    155 O22        -0.7870   -5.7950   -0.9900 o         1 MOL     -0.666438
    156 O23         0.2720   -5.9880    0.8820 o         1 MOL     -0.666438
    157 H67        -5.1490   -3.4290    0.1920 hn        1 MOL      0.147073
    158 H68        -4.6710   -6.0150    1.6880 h1        1 MOL      0.114267
    159 H69        -2.7210   -3.9220    0.6820 hc        1 MOL     -0.029082
    160 H70        -3.2880   -5.0850   -0.4270 hc        1 MOL     -0.029082
    161 H71        -2.5170   -6.8940    1.1380 hc        1 MOL      0.035376
    162 H72        -1.8630   -5.6040    2.1680 hc        1 MOL      0.035376
    163 N14        -4.2530   -3.0100    3.1320 n         1 MOL     -0.088457
    164 C55        -4.0480   -2.3190    4.4470 c3        1 MOL     -0.276442
    165 H73        -4.9350   -1.7380    4.6940 h1        1 MOL      0.107471
    166 H74        -3.8730   -3.0630    5.2250 h1        1 MOL      0.107471
    167 H75        -3.1860   -1.6550    4.3780 h1        1 MOL      0.107471
    168 H76        -4.4170   -2.5420    2.2500 hn        1 MOL      0.152387
    169 Ca1         1.6820   -4.6850   -0.9720 Ca        1 MOL      1.754752
    170 O24         1.6610   -6.1330   -3.2690 oh        1 MOL     -0.861912
    171 H77         0.8540   -6.3430   -3.7500 ho        1 MOL      0.415892
    172 H78         2.3610   -6.5370   -3.7960 ho        1 MOL      0.415892
    173 O25         3.1940   -4.4230    1.2330 oh        1 MOL     -0.861912
    174 H79         3.9460   -3.9170    0.9120 ho        1 MOL      0.415892
    175 H80         3.5910   -5.1170    1.7700 ho        1 MOL      0.415892
    176 O26         2.9440   -7.0850   -0.1840 oh        1 MOL     -0.861912
    177 H81         3.0570   -7.4320    0.6950 ho        1 MOL      0.415892
    178 H82         3.4850   -7.6380   -0.7410 ho        1 MOL      0.415892
    179 O27         0.7620   -3.0010   -3.0350 oh        1 MOL     -0.861912
    180 H83         1.3320   -2.3580   -3.4650 ho        1 MOL      0.415892
    181 H84         0.2210   -2.4880   -2.4420 ho        1 MOL      0.415892
@<TRIPOS>BOND
     1    1    2 1   
     2    1    4 1   
     3    1    5 1   
     4    1    6 1   
     5    2    3 2   
     6    2    7 1   
     7    7    8 1   
     8    7   15 1   
     9    8    9 1   
    10    8   11 1   
    11    8   16 1   
    12    9   10 2   
    13    9   19 1   
    14   11   12 1   
    15   11   17 1   
    16   11   18 1   
    17   12   13 1   
    18   12   14 1   
    19   19   20 1   
    20   19   24 1   
    21   20   21 1   
    22   20   23 1   
    23   20   25 1   
    24   21   22 2   
    25   21   29 1   
    26   23   26 1   
    27   23   27 1   
    28   23   28 1   
    29   29   30 1   
    30   29   37 1   
    31   30   31 1   
    32   30   33 1   
    33   30   38 1   
    34   31   32 2   
    35   31   41 1   
    36   33   34 1   
    37   33   39 1   
    38   33   40 1   
    39   34   35 1   
    40   34   36 1   
    41   41   42 1   
    42   41   45 1   
    43   42   43 1   
    44   42   46 1   
    45   42   47 1   
    46   43   44 2   
    47   43   48 1   
    48   48   49 1   
    49   48   56 1   
    50   49   50 1   
    51   49   52 1   
    52   49   57 1   
    53   50   51 2   
    54   50   62 1   
    55   52   53 1   
    56   52   58 1   
    57   52   59 1   
    58   53   54 1   
    59   53   55 2   
    60   54   60 1   
    61   54   61 1   
    62   62   63 1   
    63   62   66 1   
    64   63   64 1   
    65   63   67 1   
    66   63   68 1   
    67   64   65 2   
    68   64   69 1   
    69   69   70 1   
    70   69   76 1   
    71   70   71 1   
    72   70   73 1   
    73   70   77 1   
    74   71   72 2   
    75   71   83 1   
    76   73   74 1   
    77   73   75 1   
    78   73   78 1   
    79   74   80 1   
    80   74   81 1   
    81   74   82 1   
    82   75   79 1   
    83   83   84 1   
    84   83   91 1   
    85   84   85 1   
    86   84   87 1   
    87   84   92 1   
    88   85   86 2   
    89   85  102 1   
    90   87   88 1   
    91   87   89 1   
    92   87   93 1   
    93   88   90 1   
    94   88   94 1   
    95   88   95 1   
    96   89   96 1   
    97   89   97 1   
    98   89   98 1   
    99   90   99 1   
   100   90  100 1   
   101   90  101 1   
   102  102  103 1   
   103  102  110 1   
   104  103  104 1   
   105  103  106 1   
   106  103  111 1   
   107  104  105 2   
   108  104  114 1   
   109  106  107 1   
   110  106  112 1   
   111  106  113 1   
   112  107  108 1   
   113  107  109 1   
   114  114  115 1   
   115  114  125 1   
   116  115  116 1   
   117  115  118 1   
   118  115  126 1   
   119  116  117 2   
   120  116  134 1   
   121  118  119 1   
   122  118  127 1   
   123  118  128 1   
   124  119  120 ar  
   125  119  121 ar  
   126  120  122 ar  
   127  120  129 1   
   128  121  123 ar  
   129  121  130 1   
   130  122  124 ar  
   131  122  131 1   
   132  123  124 ar  
   133  123  132 1   
   134  124  133 1   
   135  134  135 1   
   136  134  140 1   
   137  135  136 1   
   138  135  138 1   
   139  135  141 1   
   140  136  137 2   
   141  136  148 1   
   142  138  139 1   
   143  138  142 1   
   144  138  143 1   
   145  139  140 1   
   146  139  144 1   
   147  139  145 1   
   148  140  146 1   
   149  140  147 1   
   150  148  149 1   
   151  148  157 1   
   152  149  150 1   
   153  149  152 1   
   154  149  158 1   
   155  150  151 2   
   156  150  163 1   
   157  152  153 1   
   158  152  159 1   
   159  152  160 1   
   160  153  154 1   
   161  153  161 1   
   162  153  162 1   
   163  154  155 1   
   164  154  156 1   
   165  163  164 1   
   166  163  168 1   
   167  164  165 1   
   168  164  166 1   
   169  164  167 1   
   170  170  171 1   
   171  170  172 1   
   172  173  174 1   
   173  173  175 1   
   174  176  177 1   
   175  176  178 1   
   176  179  180 1   
   177  179  181 1   
@<TRIPOS>SUBSTRUCTURE
     1 MOL         1 TEMP              0 ****  ****    0 ROOT
