@<TRIPOS>MOLECULE
MOL
  195   189     1     0     0
SMALL
resp


@<TRIPOS>ATOM
      1 C1          3.2940    3.4970    3.1430 c3        1 MOL     -0.411322
      2 C2          2.3830    3.9210    1.9220 c         1 MOL      0.755700
      3 O1          1.3560    3.3350    1.6650 o         1 MOL     -0.567500
      4 H1          3.1570    2.4350    3.3450 hc        1 MOL      0.082656
      5 H2          4.3390    3.6880    2.9000 hc        1 MOL      0.082656
      6 H3          3.0130    4.0740    4.0240 hc        1 MOL      0.082656
      7 N1          2.8370    4.9370    1.2410 n         1 MOL     -0.342729
      8 C3          2.1860    5.6240    0.1270 c3        1 MOL     -0.082625
      9 C4          0.6300    5.6420    0.1910 c         1 MOL      0.897297
     10 O2         -0.1690    5.1150   -0.6260 o         1 MOL     -0.576010
     11 C5          2.6380    5.1060   -1.2630 c3        1 MOL     -0.727173
     12 C6          4.1360    4.9810   -1.4670 c         1 MOL      1.034754
     13 O3          4.8800    5.9700   -1.1210 o         1 MOL     -0.774508
     14 O4          4.6700    3.9470   -1.9060 o         1 MOL     -0.774508
     15 H4          3.6900    5.3890    1.5380 hn        1 MOL      0.176716
     16 H5          2.5070    6.6540    0.2380 h1        1 MOL      0.102073
     17 H6          2.2020    5.7430   -2.0390 hc        1 MOL      0.202600
     18 H7          2.1990    4.1120   -1.3230 hc        1 MOL      0.202600
     19 N2          0.1380    6.3340    1.2330 n         1 MOL     -0.752139
     20 C7         -1.2530    6.6550    1.4510 c3        1 MOL     -0.092180
     21 C8         -1.8990    7.3310    0.2040 c         1 MOL      0.408684
     22 O5         -1.3070    8.1360   -0.4610 o         1 MOL     -0.530340
     23 C9         -1.4740    7.4790    2.7110 c3        1 MOL      0.288075
     24 C10        -0.8650    8.9240    2.5680 c3        1 MOL      0.171159
     25 C11        -1.0790    6.6410    3.9680 c3        1 MOL     -0.170849
     26 C12        -1.0560    9.6860    3.8600 c3        1 MOL     -0.100701
     27 H8          0.8290    6.7290    1.8560 hn        1 MOL      0.309502
     28 H9         -1.7570    5.7010    1.6170 h1        1 MOL      0.147247
     29 H10        -2.5420    7.6260    2.8380 hc        1 MOL     -0.019681
     30 H11        -1.3190    9.3900    1.6930 hc        1 MOL     -0.034850
     31 H12         0.2090    8.8910    2.3860 hc        1 MOL     -0.034850
     32 H13        -0.0060    6.4180    3.9380 hc        1 MOL      0.020106
     33 H14        -1.3390    7.0180    4.9540 hc        1 MOL      0.020106
     34 H15        -1.5950    5.6820    3.8920 hc        1 MOL      0.020106
     35 H16        -0.4120    9.2770    4.6260 hc        1 MOL     -0.001510
     36 H17        -0.7160   10.7120    3.7240 hc        1 MOL     -0.001510
     37 H18        -2.1010    9.6140    4.1520 hc        1 MOL     -0.001510
     38 N3         -3.1170    6.9220   -0.2460 n         1 MOL     -0.193800
     39 C13        -4.0680    5.9910    0.2960 c3        1 MOL     -0.087536
     40 C14        -4.2380    4.7520   -0.6320 c         1 MOL      0.509493
     41 O6         -5.0600    3.8750   -0.2390 o         1 MOL     -0.562267
     42 C15        -5.4960    6.6700    0.4500 c3        1 MOL      0.000836
     43 C16        -5.5470    8.1210    0.6550 c         1 MOL      0.670235
     44 O7         -5.8900    8.5130    1.8070 o         1 MOL     -0.732335
     45 O8         -5.3150    8.8950   -0.3100 o         1 MOL     -0.732335
     46 H19        -3.4770    7.4620   -1.0200 hn        1 MOL      0.216518
     47 H20        -3.7080    5.7000    1.2860 h1        1 MOL      0.062820
     48 H21        -6.0240    6.1380    1.2320 hc        1 MOL     -0.003544
     49 H22        -6.0830    6.6010   -0.4650 hc        1 MOL     -0.003544
     50 N4         -3.5990    4.6240   -1.7850 n         1 MOL     -0.443989
     51 C17        -3.4480    3.2820   -2.4560 c3        1 MOL     -0.016947
     52 C18        -4.8180    2.6370   -2.8660 c         1 MOL      0.539684
     53 O9         -5.7790    3.3510   -3.0770 o         1 MOL     -0.505116
     54 H23        -2.9270    5.3680   -1.9500 hn        1 MOL      0.297440
     55 H24        -2.9170    2.6670   -1.7240 h1        1 MOL      0.079941
     56 H25        -2.7730    3.3390   -3.3100 h1        1 MOL      0.079941
     57 N5         -4.8280    1.2880   -2.8720 n         1 MOL     -0.598190
     58 C19        -6.0490    0.5440   -3.2300 c3        1 MOL      0.323081
     59 C20        -6.9500    0.0940   -2.0590 c         1 MOL      0.409777
     60 O10        -8.1010   -0.2110   -2.4320 o         1 MOL     -0.575931
     61 C21        -5.5580   -0.6950   -3.9680 c3        1 MOL     -0.330991
     62 C22        -4.4380   -1.4320   -3.2960 c         1 MOL      0.839160
     63 O11        -3.3180   -1.5390   -3.8650 o         1 MOL     -0.727938
     64 O12        -4.5970   -2.0830   -2.2550 o         1 MOL     -0.727938
     65 H26        -3.9980    0.7720   -2.6180 hn        1 MOL      0.266548
     66 H27        -6.7010    1.1320   -3.8730 h1        1 MOL      0.037855
     67 H28        -5.2020   -0.3690   -4.9380 hc        1 MOL      0.041315
     68 H29        -6.4500   -1.3030   -4.1470 hc        1 MOL      0.041315
     69 N6         -6.4600    0.0130   -0.8230 n         1 MOL     -0.209026
     70 C23        -7.3010   -0.3930    0.3110 c3        1 MOL     -0.186024
     71 C24        -7.6810   -1.9090    0.3730 c         1 MOL      0.527238
     72 O13        -8.5510   -2.2600    1.1290 o         1 MOL     -0.571119
     73 H30        -5.4660    0.1590   -0.6880 hn        1 MOL      0.257309
     74 H31        -8.2320    0.1530    0.2060 h1        1 MOL      0.098293
     75 H32        -6.8370   -0.0860    1.2490 h1        1 MOL      0.098293
     76 N7         -6.9440   -2.7220   -0.3900 n         1 MOL     -0.054426
     77 C25        -6.9940   -4.1640   -0.3950 c3        1 MOL     -0.141919
     78 C26        -6.3840   -4.8190    0.9100 c         1 MOL      0.488936
     79 O14        -6.6730   -5.9890    1.2320 o         1 MOL     -0.501845
     80 C27        -8.3850   -4.5490   -0.9080 c3        1 MOL      0.019875
     81 C28        -8.7290   -4.1240   -2.3500 c3        1 MOL     -0.152187
     82 C29        -9.8650   -4.8290   -3.0730 c         1 MOL      0.609494
     83 N8        -10.4000   -4.2520   -4.1210 n         1 MOL     -0.772034
     84 O15       -10.1430   -6.0020   -2.7430 o         1 MOL     -0.572083
     85 H33        -6.2310   -2.2920   -0.9640 hn        1 MOL      0.071307
     86 H34        -6.2360   -4.4070   -1.1480 h1        1 MOL      0.138328
     87 H35        -9.1220   -4.1450   -0.2000 hc        1 MOL      0.036800
     88 H36        -8.5450   -5.6210   -0.8140 hc        1 MOL      0.036800
     89 H37        -7.8360   -3.9810   -2.9590 hc        1 MOL      0.066097
     90 H38        -9.1850   -3.1530   -2.2000 hc        1 MOL      0.066097
     91 H39        -9.9380   -3.4610   -4.5330 hn        1 MOL      0.353219
     92 H40       -11.1910   -4.6910   -4.5690 hn        1 MOL      0.353219
     93 N9         -5.5720   -4.0860    1.7370 n         1 MOL     -0.358664
     94 C30        -5.1320   -4.4680    3.1050 c3        1 MOL     -0.245700
     95 C31        -3.5980   -4.3550    3.2850 c         1 MOL      0.770999
     96 O16        -3.0040   -4.9800    4.1480 o         1 MOL     -0.608466
     97 C32        -5.8900   -3.7340    4.1300 c3        1 MOL      0.354592
     98 C33        -5.8360   -2.1980    3.9890 c3        1 MOL     -0.325192
     99 C34        -7.3210   -4.3110    4.1510 c3        1 MOL     -0.325192
    100 H41        -5.4010   -3.1210    1.5330 hn        1 MOL      0.244799
    101 H42        -5.2390   -5.5460    3.2110 h1        1 MOL      0.128558
    102 H43        -5.4350   -3.9180    5.1020 hc        1 MOL     -0.047937
    103 H44        -6.1420   -1.7890    3.0370 hc        1 MOL      0.074483
    104 H45        -6.5120   -1.7920    4.7380 hc        1 MOL      0.074483
    105 H46        -4.8440   -1.9060    4.3360 hc        1 MOL      0.074483
    106 H47        -7.9340   -3.7340    3.4500 hc        1 MOL      0.074483
    107 H48        -7.2310   -5.3860    3.9820 hc        1 MOL      0.074483
    108 H49        -7.7840   -4.2360    5.1310 hc        1 MOL      0.074483
    109 N10        -2.9750   -3.5380    2.4130 n         1 MOL     -0.712108
    110 C35        -1.6130   -2.9920    2.4120 c3        1 MOL      0.602020
    111 C36        -0.9530   -3.2510    1.0150 c         1 MOL      0.318703
    112 O17        -1.6590   -3.5330    0.0450 o         1 MOL     -0.479049
    113 C37        -1.6320   -1.5640    2.9560 c3        1 MOL     -0.187364
    114 C38        -0.3510   -1.1460    3.6290 c         1 MOL      0.606021
    115 N11        -0.3910   -0.4310    4.7830 n         1 MOL     -0.838792
    116 O18         0.7280   -1.5240    3.1930 o         1 MOL     -0.475968
    117 H50        -3.5690   -3.1130    1.7210 hn        1 MOL      0.269217
    118 H51        -1.0860   -3.5220    3.2110 h1        1 MOL     -0.047222
    119 H52        -2.4190   -1.4070    3.6980 hc        1 MOL      0.032097
    120 H53        -1.8160   -0.9220    2.0990 hc        1 MOL      0.032097
    121 H54        -1.3260   -0.3380    5.1590 hn        1 MOL      0.382835
    122 H55         0.4010   -0.0560    5.2880 hn        1 MOL      0.382835
    123 N12         0.3240   -3.0540    0.8550 n         1 MOL     -0.332862
    124 C39         1.1570   -3.4960   -0.2660 c3        1 MOL      0.063850
    125 C40         2.5880   -3.8150    0.2800 c         1 MOL      0.508258
    126 O19         3.2330   -3.0190    1.0150 o         1 MOL     -0.523456
    127 C41         1.2690   -2.3790   -1.3140 c3        1 MOL     -0.212724
    128 C42         2.3140   -2.6990   -2.4100 ca        1 MOL      0.022103
    129 C43         3.3450   -1.7750   -2.5500 ca        1 MOL     -0.119148
    130 C44         2.2950   -3.8920   -3.1670 ca        1 MOL     -0.119148
    131 C45         4.4430   -2.1140   -3.3720 ca        1 MOL     -0.339255
    132 C46         3.3210   -4.1440   -4.0740 ca        1 MOL     -0.339255
    133 C47         4.4710   -3.3540   -4.0780 ca        1 MOL      0.442739
    134 O20         5.4540   -3.6670   -4.9410 oh        1 MOL     -0.531651
    135 H56         0.8850   -2.7240    1.6370 hn        1 MOL      0.145111
    136 H57         0.7880   -4.4350   -0.6890 h1        1 MOL      0.082860
    137 H58         1.4510   -1.3910   -0.8990 hc        1 MOL      0.129633
    138 H59         0.2920   -2.2450   -1.7900 hc        1 MOL      0.129633
    139 H60         3.4190   -0.9330   -1.8830 ha        1 MOL      0.143845
    140 H61         1.3750   -4.4610   -3.2170 ha        1 MOL      0.143845
    141 H62         5.3670   -1.5660   -3.3850 ha        1 MOL      0.167612
    142 H63         3.1860   -4.9660   -4.7600 ha        1 MOL      0.167612
    143 H64         5.8750   -2.8640   -5.2450 ho        1 MOL      0.366427
    144 N13         3.0660   -4.9700   -0.0160 n         1 MOL     -0.411131
    145 C48         4.3950   -5.4660    0.3840 c3        1 MOL      0.115868
    146 C49         5.4190   -5.3590   -0.8670 c         1 MOL      0.698481
    147 O21         5.3390   -6.2700   -1.6890 o         1 MOL     -0.579117
    148 C50         4.4420   -6.9540    0.8870 c3        1 MOL     -0.127333
    149 C51         5.8200   -7.3940    1.5260 c3        1 MOL     -0.117386
    150 C52         5.9290   -8.8470    1.8390 c         1 MOL      0.734305
    151 O22         6.2310   -9.6780    0.9310 o         1 MOL     -0.712013
    152 O23         5.7990   -9.2460    3.0130 o         1 MOL     -0.712013
    153 H65         2.4590   -5.6240   -0.4860 hn        1 MOL      0.262680
    154 H66         4.8110   -4.8600    1.1850 h1        1 MOL      0.036509
    155 H67         4.2080   -7.6590    0.0920 hc        1 MOL      0.048329
    156 H68         3.6690   -7.0630    1.6420 hc        1 MOL      0.048329
    157 H69         5.9710   -6.9150    2.4940 hc        1 MOL      0.006645
    158 H70         6.6530   -7.0110    0.9300 hc        1 MOL      0.006645
    159 N14         6.4080   -4.4850   -0.9120 n         1 MOL     -0.540380
    160 C53         6.5670   -3.2100   -0.1720 c3        1 MOL     -0.050348
    161 C54         7.1060   -3.4660    1.2280 c         1 MOL      0.585238
    162 O24         8.1060   -4.0560    1.5020 o         1 MOL     -0.533858
    163 C55         7.3890   -2.1940   -0.9930 c3        1 MOL      0.062680
    164 C56         6.9160   -0.8440   -0.4130 c3        1 MOL     -0.325050
    165 C57         7.7200    0.3660   -1.0170 c         1 MOL      0.804156
    166 O25         7.1630    1.4150   -1.3440 o         1 MOL     -0.740067
    167 O26         8.9500    0.3650   -0.9170 o         1 MOL     -0.740067
    168 H71         7.0880   -4.5780   -1.6530 hn        1 MOL      0.294962
    169 H72         5.5200   -2.9230   -0.0510 h1        1 MOL      0.050995
    170 H73         7.0300   -2.2180   -2.0230 hc        1 MOL      0.020956
    171 H74         8.4820   -2.2770   -0.9170 hc        1 MOL      0.020956
    172 H75         7.2280   -0.7730    0.6270 hc        1 MOL      0.065637
    173 H76         5.8420   -0.7650   -0.6140 hc        1 MOL      0.065637
    174 N15         6.3950   -2.8730    2.2280 n         1 MOL     -0.226538
    175 C58         6.6530   -2.8620    3.6680 c3        1 MOL     -0.238539
    176 H77         5.9510   -2.1860    4.1570 h1        1 MOL      0.095917
    177 H78         6.5260   -3.8680    4.0680 h1        1 MOL      0.095917
    178 H79         7.6730   -2.5240    3.8530 h1        1 MOL      0.095917
    179 H80         5.5200   -2.4380    1.9760 hn        1 MOL      0.207209
    180 Ca1         7.1110    3.8810   -0.9030 Ca        1 MOL      1.696838
    181 O27         7.1640    4.4750   -3.5840 oh        1 MOL     -0.867414
    182 H81         6.5430    4.5930   -4.3000 ho        1 MOL      0.411166
    183 H82         8.0280    4.4160   -4.0080 ho        1 MOL      0.411166
    184 O28         8.7360    2.9230    0.8530 oh        1 MOL     -0.867414
    185 H83         9.6420    3.0440    1.1320 ho        1 MOL      0.411166
    186 H84         8.4130    2.2020    1.3890 ho        1 MOL      0.411166
    187 O29         9.3930    2.9820   -1.9760 oh        1 MOL     -0.867414
    188 H85        10.2850    3.1700   -1.7100 ho        1 MOL      0.411166
    189 H86         9.2600    2.0570   -1.7450 ho        1 MOL      0.411166
    190 O30         8.4760    6.0960   -1.2620 oh        1 MOL     -0.867414
    191 H87         9.3610    6.0450   -0.9190 ho        1 MOL      0.411166
    192 H88         8.4130    6.9790   -1.6270 ho        1 MOL      0.411166
    193 O31         5.5390    2.4420    0.8740 oh        1 MOL     -0.867414
    194 H89         5.8580    2.3130    1.7690 ho        1 MOL      0.411166
    195 H90         4.8250    1.8080    0.7870 ho        1 MOL      0.411166
@<TRIPOS>BOND
     1    1    2 1   
     2    1    4 1   
     3    1    5 1   
     4    1    6 1   
     5    2    3 2   
     6    2    7 1   
     7    7    8 1   
     8    7   15 1   
     9    8    9 1   
    10    8   11 1   
    11    8   16 1   
    12    9   10 2   
    13    9   19 1   
    14   11   12 1   
    15   11   17 1   
    16   11   18 1   
    17   12   13 1   
    18   12   14 1   
    19   19   20 1   
    20   19   27 1   
    21   20   21 1   
    22   20   23 1   
    23   20   28 1   
    24   21   22 2   
    25   21   38 1   
    26   23   24 1   
    27   23   25 1   
    28   23   29 1   
    29   24   26 1   
    30   24   30 1   
    31   24   31 1   
    32   25   32 1   
    33   25   33 1   
    34   25   34 1   
    35   26   35 1   
    36   26   36 1   
    37   26   37 1   
    38   38   39 1   
    39   38   46 1   
    40   39   40 1   
    41   39   42 1   
    42   39   47 1   
    43   40   41 2   
    44   40   50 1   
    45   42   43 1   
    46   42   48 1   
    47   42   49 1   
    48   43   44 1   
    49   43   45 1   
    50   50   51 1   
    51   50   54 1   
    52   51   52 1   
    53   51   55 1   
    54   51   56 1   
    55   52   53 2   
    56   52   57 1   
    57   57   58 1   
    58   57   65 1   
    59   58   59 1   
    60   58   61 1   
    61   58   66 1   
    62   59   60 2   
    63   59   69 1   
    64   61   62 1   
    65   61   67 1   
    66   61   68 1   
    67   62   63 1   
    68   62   64 1   
    69   69   70 1   
    70   69   73 1   
    71   70   71 1   
    72   70   74 1   
    73   70   75 1   
    74   71   72 2   
    75   71   76 1   
    76   76   77 1   
    77   76   85 1   
    78   77   78 1   
    79   77   80 1   
    80   77   86 1   
    81   78   79 2   
    82   78   93 1   
    83   80   81 1   
    84   80   87 1   
    85   80   88 1   
    86   81   82 1   
    87   81   89 1   
    88   81   90 1   
    89   82   83 1   
    90   82   84 2   
    91   83   91 1   
    92   83   92 1   
    93   93   94 1   
    94   93  100 1   
    95   94   95 1   
    96   94   97 1   
    97   94  101 1   
    98   95   96 2   
    99   95  109 1   
   100   97   98 1   
   101   97   99 1   
   102   97  102 1   
   103   98  103 1   
   104   98  104 1   
   105   98  105 1   
   106   99  106 1   
   107   99  107 1   
   108   99  108 1   
   109  109  110 1   
   110  109  117 1   
   111  110  111 1   
   112  110  113 1   
   113  110  118 1   
   114  111  112 2   
   115  111  123 1   
   116  113  114 1   
   117  113  119 1   
   118  113  120 1   
   119  114  115 1   
   120  114  116 2   
   121  115  121 1   
   122  115  122 1   
   123  123  124 1   
   124  123  135 1   
   125  124  125 1   
   126  124  127 1   
   127  124  136 1   
   128  125  126 2   
   129  125  144 1   
   130  127  128 1   
   131  127  137 1   
   132  127  138 1   
   133  128  129 ar  
   134  128  130 ar  
   135  129  131 ar  
   136  129  139 1   
   137  130  132 ar  
   138  130  140 1   
   139  131  133 ar  
   140  131  141 1   
   141  132  133 ar  
   142  132  142 1   
   143  133  134 1   
   144  134  143 1   
   145  144  145 1   
   146  144  153 1   
   147  145  146 1   
   148  145  148 1   
   149  145  154 1   
   150  146  147 2   
   151  146  159 1   
   152  148  149 1   
   153  148  155 1   
   154  148  156 1   
   155  149  150 1   
   156  149  157 1   
   157  149  158 1   
   158  150  151 1   
   159  150  152 1   
   160  159  160 1   
   161  159  168 1   
   162  160  161 1   
   163  160  163 1   
   164  160  169 1   
   165  161  162 2   
   166  161  174 1   
   167  163  164 1   
   168  163  170 1   
   169  163  171 1   
   170  164  165 1   
   171  164  172 1   
   172  164  173 1   
   173  165  166 1   
   174  165  167 1   
   175  174  175 1   
   176  174  179 1   
   177  175  176 1   
   178  175  177 1   
   179  175  178 1   
   180  181  182 1   
   181  181  183 1   
   182  184  185 1   
   183  184  186 1   
   184  187  188 1   
   185  187  189 1   
   186  190  191 1   
   187  190  192 1   
   188  193  194 1   
   189  193  195 1   
@<TRIPOS>SUBSTRUCTURE
     1 MOL         1 TEMP              0 ****  ****    0 ROOT
