@<TRIPOS>MOLECULE
MOL
  182   178     1     0     0
SMALL
resp


@<TRIPOS>ATOM
      1 C1          3.5360   -6.7030    4.0640 c3        1 MOL     -0.312588
      2 C2          2.9100   -5.7670    3.0530 c         1 MOL      0.646247
      3 O1          1.9340   -6.1740    2.3780 o         1 MOL     -0.564568
      4 H1          4.3530   -7.2510    3.5940 hc        1 MOL      0.089224
      5 H2          3.9220   -6.1260    4.9050 hc        1 MOL      0.089224
      6 H3          2.7850   -7.4080    4.4210 hc        1 MOL      0.089224
      7 N1          3.4070   -4.5360    2.9410 n         1 MOL     -0.574365
      8 C3          3.2090   -3.6870    1.7820 c3        1 MOL     -0.064534
      9 C4          3.3980   -4.3840    0.4120 c         1 MOL      0.729233
     10 O2          4.2840   -5.2440    0.3500 o         1 MOL     -0.537249
     11 C5          4.1400   -2.4730    2.0190 c3        1 MOL      0.004099
     12 C6          3.7340   -1.2790    1.1200 c         1 MOL      0.481349
     13 O3          3.9040   -0.0980    1.5000 o         1 MOL     -0.629195
     14 O4          3.1840   -1.4770    0.0030 o         1 MOL     -0.629195
     15 H4          3.9910   -4.1530    3.6660 hn        1 MOL      0.340942
     16 H5          2.2340   -3.2060    1.7670 h1        1 MOL      0.134030
     17 H6          5.1420   -2.7910    1.7320 hc        1 MOL      0.035977
     18 H7          4.1630   -2.2240    3.0770 hc        1 MOL      0.035977
     19 N2          2.7480   -3.9650   -0.6660 n         1 MOL     -0.667877
     20 C7          3.0740   -4.4890   -2.0800 c3        1 MOL      0.095966
     21 C8          4.1420   -3.6630   -2.8780 c         1 MOL      0.565027
     22 O5          4.8980   -4.3470   -3.5660 o         1 MOL     -0.532179
     23 C9          1.7370   -4.7140   -2.8580 c3        1 MOL      0.016429
     24 C10         0.6220   -5.3020   -2.0610 c3        1 MOL      0.151591
     25 C11        -0.3460   -5.9760   -3.0000 c3        1 MOL     -0.463507
     26 C12        -1.4600   -6.6660   -2.1450 c3        1 MOL      0.206382
     27 N3         -1.0940   -8.0250   -1.6470 n4        1 MOL     -0.404672
     28 H8          2.4790   -2.9920   -0.6770 hn        1 MOL      0.258711
     29 H9          3.5760   -5.4560   -1.9940 h1        1 MOL      0.057915
     30 H10         1.9820   -5.2230   -3.7920 hc        1 MOL     -0.008432
     31 H11         1.3850   -3.7330   -3.2050 hc        1 MOL     -0.008432
     32 H12         0.1800   -4.5270   -1.4450 hc        1 MOL      0.021778
     33 H13         1.0450   -6.0040   -1.3420 hc        1 MOL      0.021778
     34 H14         0.1930   -6.5850   -3.7300 hc        1 MOL      0.151116
     35 H15        -0.9190   -5.1630   -3.4520 hc        1 MOL      0.151116
     36 H16        -2.2860   -6.7680   -2.8530 hx        1 MOL      0.058393
     37 H17        -1.8340   -6.0150   -1.3580 hx        1 MOL      0.058393
     38 H18        -0.6810   -8.5080   -2.4260 hn        1 MOL      0.329785
     39 H19        -0.3080   -7.9890   -1.0060 hn        1 MOL      0.329785
     40 H20        -1.8380   -8.5810   -1.2400 hn        1 MOL      0.329785
     41 N4          4.1320   -2.3040   -2.7330 n         1 MOL     -0.705721
     42 C13         5.1910   -1.5060   -3.3410 c3        1 MOL      0.423933
     43 C14         6.1580   -0.7990   -2.2720 c         1 MOL      0.255390
     44 O6          7.2890   -0.4190   -2.5980 o         1 MOL     -0.529361
     45 C15         4.5100   -0.4590   -4.1810 c3        1 MOL     -0.388430
     46 C16         3.5770    0.5180   -3.5370 c         1 MOL      0.693134
     47 O7          3.7140    0.7950   -2.3000 o         1 MOL     -0.664239
     48 O8          2.6590    1.0740   -4.2110 o         1 MOL     -0.664239
     49 H21         3.4570   -1.8450   -2.1460 hn        1 MOL      0.508757
     50 H22         5.8530   -2.0080   -4.0400 h1        1 MOL      0.038368
     51 H23         3.8920   -1.0940   -4.8260 hc        1 MOL      0.098179
     52 H24         5.3210    0.0330   -4.7230 hc        1 MOL      0.098179
     53 N5          5.8150   -0.6140   -0.9990 n         1 MOL     -0.012706
     54 C17         6.7330    0.0580   -0.0050 c3        1 MOL     -0.397643
     55 C18         6.7320    1.5810   -0.0890 c         1 MOL      0.663400
     56 O9          7.3630    2.4090    0.5430 o         1 MOL     -0.603129
     57 H25         4.9230   -0.9970   -0.7090 hn        1 MOL      0.063557
     58 H26         7.7100   -0.3320   -0.2780 h1        1 MOL      0.166837
     59 H27         6.4070   -0.3110    0.9670 h1        1 MOL      0.166837
     60 N6          5.8450    2.0690   -0.9260 n         1 MOL     -0.186273
     61 C19         5.5520    3.4760   -1.2290 c3        1 MOL     -0.096741
     62 C20         4.2170    3.8810   -0.5300 c         1 MOL      0.528555
     63 O10         3.2610    3.0780   -0.5110 o         1 MOL     -0.607103
     64 C21         5.5980    3.5870   -2.7230 c3        1 MOL     -0.088023
     65 C22         5.6960    5.0110   -3.2810 c         1 MOL      0.741491
     66 N7          5.7280    4.9800   -4.6120 n         1 MOL     -0.891040
     67 O11         5.6780    6.0090   -2.6500 o         1 MOL     -0.568195
     68 H28         5.2380    1.4190   -1.4010 hn        1 MOL      0.101964
     69 H29         6.4450    4.0590   -0.9940 h1        1 MOL      0.083151
     70 H30         4.7230    3.0830   -3.1440 hc        1 MOL      0.066092
     71 H31         6.5340    3.1700   -3.0970 hc        1 MOL      0.066092
     72 H32         5.5970    4.1220   -5.1300 hn        1 MOL      0.375236
     73 H33         5.7790    5.8000   -5.2120 hn        1 MOL      0.375236
     74 N8          4.1040    5.1310   -0.0970 n         1 MOL     -0.266988
     75 C23         2.8110    5.7800    0.1700 c3        1 MOL     -0.156375
     76 C24         2.0680    5.1760    1.3740 c         1 MOL      0.637147
     77 O12         2.6110    5.0790    2.5170 o         1 MOL     -0.535609
     78 H34         4.9700    5.6140    0.1100 hn        1 MOL      0.274111
     79 H35         2.1850    5.6560   -0.7100 h1        1 MOL      0.098611
     80 H36         2.9010    6.8420    0.4030 h1        1 MOL      0.098611
     81 N9          0.7970    4.7360    1.1980 n         1 MOL     -0.618723
     82 C25         0.0300    3.9760    2.1900 c3        1 MOL      0.152832
     83 C26         0.5400    2.5230    2.3790 c         1 MOL      0.630796
     84 O13         1.3680    2.0750    1.6170 o         1 MOL     -0.538292
     85 C27        -1.4260    4.0240    1.6370 c3        1 MOL     -0.061748
     86 C28        -1.9690    5.4630    1.4950 ca        1 MOL      0.070138
     87 C29        -2.1210    6.3430    2.6140 ca        1 MOL     -0.173366
     88 C30        -2.5010    5.8600    0.2590 ca        1 MOL     -0.173366
     89 C31        -2.8680    7.5760    2.4920 ca        1 MOL     -0.232221
     90 C32        -3.2100    7.0820    0.1210 ca        1 MOL     -0.232221
     91 C33        -3.3310    7.9230    1.2280 ca        1 MOL      0.298181
     92 O14        -3.9840    9.0820    1.1550 oh        1 MOL     -0.437405
     93 H37         0.4130    4.9320    0.2870 hn        1 MOL      0.293391
     94 H38        -0.0110    4.4090    3.1920 h1        1 MOL      0.055709
     95 H39        -2.1110    3.3520    2.1550 hc        1 MOL      0.020254
     96 H40        -1.3790    3.6190    0.6320 hc        1 MOL      0.020254
     97 H41        -1.8040    5.9730    3.5820 ha        1 MOL      0.131488
     98 H42        -2.5340    5.2140   -0.6150 ha        1 MOL      0.131488
     99 H43        -2.8980    8.2800    3.3040 ha        1 MOL      0.156959
    100 H44        -3.6010    7.3980   -0.8340 ha        1 MOL      0.156959
    101 H45        -4.1860    9.2400    0.2340 ho        1 MOL      0.346375
    102 N10        -0.1240    1.8810    3.3440 n         1 MOL     -0.727695
    103 C34         0.2210    0.4700    3.8100 c3        1 MOL      0.358460
    104 C35         0.0330   -0.6690    2.6740 c         1 MOL      0.405355
    105 O15         0.6330   -0.6730    1.6000 o         1 MOL     -0.461140
    106 C36         1.4910    0.3110    4.6650 c3        1 MOL      0.241003
    107 C37         1.6180   -1.0700    5.3310 c3        1 MOL     -0.289397
    108 C38         1.6910    1.4800    5.6200 c3        1 MOL     -0.290166
    109 C39         0.4720   -1.2580    6.3000 c3        1 MOL      0.099436
    110 H46        -0.8710    2.4180    3.7410 hn        1 MOL      0.339087
    111 H47        -0.6680    0.1760    4.3670 h1        1 MOL     -0.036842
    112 H48         2.3400    0.2380    3.9880 hc        1 MOL     -0.023699
    113 H49         2.5390   -1.0660    5.9160 hc        1 MOL      0.095091
    114 H50         1.6460   -1.8710    4.6010 hc        1 MOL      0.095091
    115 H51         0.8290    1.5830    6.2800 hc        1 MOL      0.083105
    116 H52         2.5200    1.2370    6.2760 hc        1 MOL      0.083105
    117 H53         1.8190    2.4220    5.0800 hc        1 MOL      0.083105
    118 H54        -0.3860   -1.5440    5.6890 hc        1 MOL     -0.035882
    119 H55         0.6810   -2.0140    7.0580 hc        1 MOL     -0.035882
    120 H56         0.1670   -0.3600    6.8300 hc        1 MOL     -0.035882
    121 N11        -0.6730   -1.7470    3.0870 n         1 MOL     -0.331531
    122 C40        -0.7550   -2.9340    2.2010 c3        1 MOL     -0.028693
    123 C41        -1.9590   -2.7640    1.2310 c         1 MOL      0.551378
    124 O16        -2.1310   -3.5410    0.2910 o         1 MOL     -0.543715
    125 C42        -0.9450   -4.1300    3.1170 c3        1 MOL     -0.094878
    126 O17         0.1080   -4.2250    4.0520 oh        1 MOL     -0.503896
    127 H57        -0.8620   -1.8840    4.0670 hn        1 MOL      0.299477
    128 H58         0.2220   -3.0810    1.7330 h1        1 MOL      0.054392
    129 H59        -1.0400   -5.0360    2.5300 h1        1 MOL      0.106295
    130 H60        -1.8530   -3.9320    3.6950 h1        1 MOL      0.106295
    131 H61        -0.2890   -4.4040    4.9050 ho        1 MOL      0.388271
    132 N12        -2.9020   -1.8070    1.4660 n         1 MOL     -0.511401
    133 C43        -4.0150   -1.4890    0.6460 c3        1 MOL      0.417235
    134 C44        -3.9010   -0.0150    0.1660 c         1 MOL      0.471697
    135 O18        -3.1740    0.7960    0.6800 o         1 MOL     -0.510948
    136 C45        -5.2820   -1.6620    1.6210 c3        1 MOL     -0.332063
    137 H62        -2.7530   -1.1420    2.2020 hn        1 MOL      0.195063
    138 H63        -4.1410   -2.1010   -0.2450 h1        1 MOL     -0.000073
    139 H64        -5.3630   -2.7160    1.9170 hc        1 MOL      0.098379
    140 H65        -5.2660   -0.9990    2.4800 hc        1 MOL      0.098379
    141 H66        -6.1910   -1.4040    1.0860 hc        1 MOL      0.098379
    142 N13        -4.6540    0.4660   -0.8600 n         1 MOL     -0.534113
    143 C46        -5.6640   -0.2890   -1.6140 c3        1 MOL      0.188630
    144 C47        -6.8290    0.5930   -2.1630 c         1 MOL      0.523631
    145 O19        -6.6510    1.6580   -2.7300 o         1 MOL     -0.540691
    146 C48        -5.0480   -1.0220   -2.9270 c3        1 MOL     -0.089352
    147 H67        -4.3680    1.3800   -1.1730 hn        1 MOL      0.305626
    148 H68        -6.1250   -0.9900   -0.9200 h1        1 MOL     -0.029686
    149 H69        -4.0870   -1.5060   -2.7540 hc        1 MOL      0.032226
    150 H70        -5.7310   -1.8130   -3.2330 hc        1 MOL      0.032226
    151 H71        -4.8590   -0.3410   -3.7440 hc        1 MOL      0.032226
    152 N14        -8.0480    0.1140   -2.1100 n         1 MOL     -0.475261
    153 C49        -8.4640   -1.2780   -1.7650 c3        1 MOL      0.045444
    154 C50        -8.6360   -1.5360   -0.2210 c         1 MOL      0.453484
    155 O20        -8.1760   -2.5800    0.2770 o         1 MOL     -0.556865
    156 C51        -9.6340   -1.6020   -2.6430 c3        1 MOL     -0.028864
    157 C52       -11.0390   -0.9990   -2.2720 c3        1 MOL     -0.209958
    158 C53       -11.0440    0.5110   -2.2990 c         1 MOL      0.733820
    159 O21       -11.1300    1.1210   -1.2090 o         1 MOL     -0.695668
    160 O22       -11.0370    1.1460   -3.3850 o         1 MOL     -0.695668
    161 H72        -8.7020    0.7250   -2.5730 hn        1 MOL      0.323113
    162 H73        -7.7090   -2.0490   -1.9380 h1        1 MOL      0.031664
    163 H74        -9.8030   -2.6630   -2.8000 hc        1 MOL      0.031128
    164 H75        -9.3420   -1.2790   -3.6420 hc        1 MOL      0.031128
    165 H76       -11.3870   -1.4010   -1.3110 hc        1 MOL      0.042829
    166 H77       -11.8360   -1.3360   -2.9290 hc        1 MOL      0.042829
    167 N15        -9.2180   -0.5540    0.4790 n         1 MOL     -0.214347
    168 C54        -9.4390   -0.6780    1.9070 c3        1 MOL     -0.130683
    169 H78       -10.4210   -0.2800    2.1580 h1        1 MOL      0.074359
    170 H79        -9.3880   -1.7290    2.1930 h1        1 MOL      0.074359
    171 H80        -8.6720   -0.1170    2.4420 h1        1 MOL      0.074359
    172 H81        -9.6000    0.2670    0.0420 hn        1 MOL      0.220365
    173 Ca1         2.0030    0.8050   -0.4720 Ca        1 MOL      1.720595
    174 O23        -0.7440    0.9020   -0.4400 oh        1 MOL     -0.862825
    175 H82        -0.9910    1.1780   -1.3250 ho        1 MOL      0.410012
    176 H83        -1.5570    0.9700    0.0590 ho        1 MOL      0.410012
    177 O24         1.1030    2.0860   -2.5020 oh        1 MOL     -0.862825
    178 H84         0.5550    2.8090   -2.8290 ho        1 MOL      0.410012
    179 H85         1.7510    1.9420   -3.1880 ho        1 MOL      0.410012
    180 O25         0.8270   -0.9370   -2.3570 oh        1 MOL     -0.862825
    181 H86         1.0130   -1.0280   -3.2930 ho        1 MOL      0.410012
    182 H87         0.0280   -1.4600   -2.2210 ho        1 MOL      0.410012
@<TRIPOS>BOND
     1    1    2 1   
     2    1    4 1   
     3    1    5 1   
     4    1    6 1   
     5    2    3 2   
     6    2    7 1   
     7    7    8 1   
     8    7   15 1   
     9    8    9 1   
    10    8   11 1   
    11    8   16 1   
    12    9   10 2   
    13    9   19 1   
    14   11   12 1   
    15   11   17 1   
    16   11   18 1   
    17   12   13 1   
    18   12   14 1   
    19   19   20 1   
    20   19   28 1   
    21   20   21 1   
    22   20   23 1   
    23   20   29 1   
    24   21   22 2   
    25   21   41 1   
    26   23   24 1   
    27   23   30 1   
    28   23   31 1   
    29   24   25 1   
    30   24   32 1   
    31   24   33 1   
    32   25   26 1   
    33   25   34 1   
    34   25   35 1   
    35   26   27 1   
    36   26   36 1   
    37   26   37 1   
    38   27   38 1   
    39   27   39 1   
    40   27   40 1   
    41   41   42 1   
    42   41   49 1   
    43   42   43 1   
    44   42   45 1   
    45   42   50 1   
    46   43   44 2   
    47   43   53 1   
    48   45   46 1   
    49   45   51 1   
    50   45   52 1   
    51   46   47 1   
    52   46   48 1   
    53   53   54 1   
    54   53   57 1   
    55   54   55 1   
    56   54   58 1   
    57   54   59 1   
    58   55   56 2   
    59   55   60 1   
    60   60   61 1   
    61   60   68 1   
    62   61   62 1   
    63   61   64 1   
    64   61   69 1   
    65   62   63 2   
    66   62   74 1   
    67   64   65 1   
    68   64   70 1   
    69   64   71 1   
    70   65   66 1   
    71   65   67 2   
    72   66   72 1   
    73   66   73 1   
    74   74   75 1   
    75   74   78 1   
    76   75   76 1   
    77   75   79 1   
    78   75   80 1   
    79   76   77 2   
    80   76   81 1   
    81   81   82 1   
    82   81   93 1   
    83   82   83 1   
    84   82   85 1   
    85   82   94 1   
    86   83   84 2   
    87   83  102 1   
    88   85   86 1   
    89   85   95 1   
    90   85   96 1   
    91   86   87 ar  
    92   86   88 ar  
    93   87   89 ar  
    94   87   97 1   
    95   88   90 ar  
    96   88   98 1   
    97   89   91 ar  
    98   89   99 1   
    99   90   91 ar  
   100   90  100 1   
   101   91   92 1   
   102   92  101 1   
   103  102  103 1   
   104  102  110 1   
   105  103  104 1   
   106  103  106 1   
   107  103  111 1   
   108  104  105 2   
   109  104  121 1   
   110  106  107 1   
   111  106  108 1   
   112  106  112 1   
   113  107  109 1   
   114  107  113 1   
   115  107  114 1   
   116  108  115 1   
   117  108  116 1   
   118  108  117 1   
   119  109  118 1   
   120  109  119 1   
   121  109  120 1   
   122  121  122 1   
   123  121  127 1   
   124  122  123 1   
   125  122  125 1   
   126  122  128 1   
   127  123  124 2   
   128  123  132 1   
   129  125  126 1   
   130  125  129 1   
   131  125  130 1   
   132  126  131 1   
   133  132  133 1   
   134  132  137 1   
   135  133  134 1   
   136  133  136 1   
   137  133  138 1   
   138  134  135 2   
   139  134  142 1   
   140  136  139 1   
   141  136  140 1   
   142  136  141 1   
   143  142  143 1   
   144  142  147 1   
   145  143  144 1   
   146  143  146 1   
   147  143  148 1   
   148  144  145 2   
   149  144  152 1   
   150  146  149 1   
   151  146  150 1   
   152  146  151 1   
   153  152  153 1   
   154  152  161 1   
   155  153  154 1   
   156  153  156 1   
   157  153  162 1   
   158  154  155 2   
   159  154  167 1   
   160  156  157 1   
   161  156  163 1   
   162  156  164 1   
   163  157  158 1   
   164  157  165 1   
   165  157  166 1   
   166  158  159 1   
   167  158  160 1   
   168  167  168 1   
   169  167  172 1   
   170  168  169 1   
   171  168  170 1   
   172  168  171 1   
   173  174  175 1   
   174  174  176 1   
   175  177  178 1   
   176  177  179 1   
   177  180  181 1   
   178  180  182 1   
@<TRIPOS>SUBSTRUCTURE
     1 MOL         1 TEMP              0 ****  ****    0 ROOT
