@<TRIPOS>MOLECULE
MOL
  195   189     1     0     0
SMALL
resp


@<TRIPOS>ATOM
      1 C1          4.0550   -1.8160   -2.7950 c3        1 MOL     -0.495791
      2 C2          3.1910   -2.4890   -1.7910 c         1 MOL      0.723084
      3 O1          2.0470   -2.1540   -1.6370 o         1 MOL     -0.544433
      4 H1          4.8100   -2.5180   -3.1520 hc        1 MOL      0.127359
      5 H2          3.4450   -1.4810   -3.6340 hc        1 MOL      0.127359
      6 H3          4.5470   -0.9580   -2.3350 hc        1 MOL      0.127359
      7 N1          3.7060   -3.4910   -1.0160 n         1 MOL     -0.278223
      8 C3          3.0390   -4.4480   -0.0580 c3        1 MOL     -0.003973
      9 C4          1.5250   -4.7790   -0.3300 c         1 MOL      0.813333
     10 O2          0.7860   -4.6810    0.6550 o         1 MOL     -0.540754
     11 C5          3.3690   -4.0330    1.3870 c3        1 MOL     -0.509343
     12 C6          4.8110   -3.5370    1.6370 c         1 MOL      0.954030
     13 O3          5.7480   -4.2740    1.2280 o         1 MOL     -0.766731
     14 O4          5.0070   -2.5040    2.2470 o         1 MOL     -0.766731
     15 H4          4.6860   -3.6550   -1.1570 hn        1 MOL      0.120073
     16 H5          3.5500   -5.3890   -0.2460 h1        1 MOL      0.044077
     17 H6          3.1980   -4.8970    2.0250 hc        1 MOL      0.135602
     18 H7          2.6660   -3.2250    1.5840 hc        1 MOL      0.135602
     19 N2          1.0380   -4.9820   -1.5290 n         1 MOL     -0.764306
     20 C7         -0.3310   -5.0870   -1.8100 c3        1 MOL     -0.202897
     21 C8         -0.9280   -6.3660   -1.2180 c         1 MOL      0.667143
     22 O5         -0.2900   -7.3930   -0.9230 o         1 MOL     -0.588694
     23 C9         -0.5490   -5.0480   -3.3750 c3        1 MOL      0.410078
     24 C10         0.1840   -6.1930   -4.0990 c3        1 MOL      0.047437
     25 C11        -0.2630   -3.5330   -3.7100 c3        1 MOL     -0.173894
     26 C12        -0.0900   -6.2970   -5.6050 c3        1 MOL     -0.295737
     27 H8          1.7130   -4.8790   -2.2740 hn        1 MOL      0.271737
     28 H9         -0.7840   -4.1830   -1.4010 h1        1 MOL      0.239444
     29 H10        -1.6170   -5.2050   -3.5500 hc        1 MOL     -0.058897
     30 H11        -0.1240   -7.1510   -3.6700 hc        1 MOL      0.004480
     31 H12         1.2440   -5.9940   -3.9590 hc        1 MOL      0.004480
     32 H13        -0.8930   -2.8840   -3.1010 hc        1 MOL      0.022293
     33 H14         0.8060   -3.3600   -3.5830 hc        1 MOL      0.022293
     34 H15        -0.5810   -3.3870   -4.7430 hc        1 MOL      0.022293
     35 H16        -1.1360   -6.1000   -5.8160 hc        1 MOL      0.059459
     36 H17         0.4030   -5.5370   -6.2130 hc        1 MOL      0.059459
     37 H18         0.2470   -7.3100   -5.8510 hc        1 MOL      0.059459
     38 N3         -2.2310   -6.3620   -0.9740 n         1 MOL     -0.593964
     39 C13        -3.1050   -5.3100   -0.4950 c3        1 MOL      0.018866
     40 C14        -4.2000   -5.9280    0.4220 c         1 MOL      0.668702
     41 O6         -4.9890   -6.8190    0.1050 o         1 MOL     -0.547936
     42 C15        -3.7140   -4.5830   -1.7710 c3        1 MOL     -0.149759
     43 C16        -4.8770   -3.6570   -1.3700 c         1 MOL      0.714636
     44 O7         -5.9280   -3.7160   -2.0680 o         1 MOL     -0.701472
     45 O8         -4.7670   -3.0030   -0.3000 o         1 MOL     -0.701472
     46 H19        -2.5510   -7.3030   -0.7720 hn        1 MOL      0.279139
     47 H20        -2.4720   -4.6070    0.0360 h1        1 MOL      0.072487
     48 H21        -4.1730   -5.2900   -2.4680 hc        1 MOL      0.026869
     49 H22        -2.9750   -4.0070   -2.3190 hc        1 MOL      0.026869
     50 N4         -4.1740   -5.3350    1.6490 n         1 MOL     -0.478132
     51 C17        -5.2090   -5.6350    2.6720 c3        1 MOL     -0.079095
     52 C18        -6.0050   -4.3600    3.0710 c         1 MOL      0.659390
     53 O9         -6.9430   -4.5250    3.8000 o         1 MOL     -0.629621
     54 H23        -3.4400   -4.7110    1.9640 hn        1 MOL      0.324320
     55 H24        -4.7320   -6.0890    3.5410 h1        1 MOL      0.061513
     56 H25        -5.8930   -6.4020    2.3110 h1        1 MOL      0.061513
     57 N5         -5.6250   -3.1830    2.6050 n         1 MOL     -0.339229
     58 C19        -6.2760   -1.8850    3.0170 c3        1 MOL     -0.188136
     59 C20        -7.2750   -1.3470    2.0150 c         1 MOL      0.617672
     60 O10        -8.2470   -0.7400    2.4420 o         1 MOL     -0.629129
     61 C21        -5.2050   -0.8110    3.1720 c3        1 MOL     -0.120678
     62 C22        -4.1700   -0.6700    2.0220 c         1 MOL      0.755698
     63 O11        -3.1710   -1.3650    2.0810 o         1 MOL     -0.694026
     64 O12        -4.3530    0.2650    1.2260 o         1 MOL     -0.694026
     65 H26        -4.9630   -3.0320    1.8490 hn        1 MOL      0.157916
     66 H27        -6.7480   -2.1140    3.9650 h1        1 MOL      0.123045
     67 H28        -4.6350   -0.9770    4.0890 hc        1 MOL      0.019286
     68 H29        -5.6890    0.1570    3.3060 hc        1 MOL      0.019286
     69 N6         -6.9830   -1.4340    0.7120 n         1 MOL     -0.320662
     70 C23        -7.8100   -0.8690   -0.3280 c3        1 MOL     -0.190130
     71 C24        -7.7580    0.6620   -0.4040 c         1 MOL      0.499410
     72 O13        -8.5640    1.2600   -1.1630 o         1 MOL     -0.611234
     73 H30        -6.0710   -1.7790    0.4360 hn        1 MOL      0.316485
     74 H31        -8.8290   -1.2160   -0.1610 h1        1 MOL      0.114914
     75 H32        -7.4540   -1.3200   -1.2530 h1        1 MOL      0.114914
     76 N7         -6.9180    1.3320    0.3710 n         1 MOL      0.023002
     77 C25        -6.8390    2.7620    0.5920 c3        1 MOL     -0.148348
     78 C26        -6.6940    3.5950   -0.6220 c         1 MOL      0.632856
     79 O14        -7.1110    4.7630   -0.6590 o         1 MOL     -0.569262
     80 C27        -7.8610    3.3390    1.5640 c3        1 MOL      0.101782
     81 C28        -7.8360    2.6930    2.9180 c3        1 MOL     -0.177680
     82 C29        -8.4700    3.4910    3.9710 c         1 MOL      0.625879
     83 N8         -9.6190    3.1620    4.5880 n         1 MOL     -0.796644
     84 O15        -7.9010    4.4510    4.3980 o         1 MOL     -0.576870
     85 H33        -6.1170    0.7910    0.6660 hn        1 MOL      0.056385
     86 H34        -5.9010    2.9620    1.1280 h1        1 MOL      0.102389
     87 H35        -8.8210    3.1760    1.0660 hc        1 MOL      0.003404
     88 H36        -7.6740    4.4110    1.6480 hc        1 MOL      0.003404
     89 H37        -6.8150    2.6130    3.2920 hc        1 MOL      0.077932
     90 H38        -8.4420    1.7860    2.8580 hc        1 MOL      0.077932
     91 H39       -10.0170    2.2310    4.5930 hn        1 MOL      0.339366
     92 H40        -9.8110    3.7770    5.3590 hn        1 MOL      0.339366
     93 N9         -5.9020    3.0540   -1.5350 n         1 MOL     -0.483494
     94 C30        -5.4610    3.6710   -2.7770 c3        1 MOL     -0.134406
     95 C31        -3.9530    3.7510   -3.0200 c         1 MOL      0.701351
     96 O16        -3.5190    4.4590   -3.8820 o         1 MOL     -0.620603
     97 C32        -6.2370    2.9790   -3.9860 c3        1 MOL      0.189797
     98 C33        -6.0960    1.5110   -3.9270 c3        1 MOL     -0.265751
     99 C34        -7.7150    3.3300   -3.8280 c3        1 MOL     -0.265751
    100 H41        -5.5670    2.1120   -1.3900 hn        1 MOL      0.285139
    101 H42        -5.7280    4.7260   -2.7210 h1        1 MOL      0.116386
    102 H43        -5.8230    3.3020   -4.9410 hc        1 MOL     -0.004639
    103 H44        -5.0680    1.2730   -3.6230 hc        1 MOL      0.063813
    104 H45        -6.7120    1.0420   -3.1590 hc        1 MOL      0.063813
    105 H46        -6.2860    0.9800   -4.8530 hc        1 MOL      0.063813
    106 H47        -8.2460    2.9620   -4.7130 hc        1 MOL      0.063813
    107 H48        -8.1630    2.9220   -2.9180 hc        1 MOL      0.063813
    108 H49        -7.7180    4.4100   -3.8570 hc        1 MOL      0.063813
    109 N10        -3.1590    2.8930   -2.4580 n         1 MOL     -0.598391
    110 C35        -1.7490    2.6670   -2.7240 c3        1 MOL      0.538819
    111 C36        -0.8990    2.9080   -1.4240 c         1 MOL      0.453237
    112 O17        -1.5170    3.0060   -0.3660 o         1 MOL     -0.543221
    113 C37        -1.6050    1.3620   -3.5070 c3        1 MOL     -0.335638
    114 C38        -0.3070    0.6200   -3.2820 c         1 MOL      0.660577
    115 N11        -0.2450   -0.4480   -2.5300 n         1 MOL     -0.725952
    116 O18         0.6530    1.1000   -3.8380 o         1 MOL     -0.578019
    117 H50        -3.5400    2.1110   -1.9320 hn        1 MOL      0.279107
    118 H51        -1.4250    3.4640   -3.3970 h1        1 MOL     -0.000741
    119 H52        -1.7350    1.5440   -4.5760 hc        1 MOL      0.070908
    120 H53        -2.4150    0.7140   -3.1580 hc        1 MOL      0.070908
    121 H54        -1.0010   -0.6970   -1.8990 hn        1 MOL      0.349327
    122 H55         0.6670   -0.8410   -2.3320 hn        1 MOL      0.349327
    123 N12         0.4160    2.9550   -1.5070 n         1 MOL     -0.648506
    124 C39         1.2960    3.1900   -0.3760 c3        1 MOL      0.769605
    125 C40         2.5530    3.9990   -0.7320 c         1 MOL      0.224188
    126 O19         3.0050    3.9240   -1.8720 o         1 MOL     -0.498872
    127 C41         1.4370    2.0360    0.5070 c3        1 MOL     -0.444170
    128 C42         1.6220    2.4680    1.9760 ca        1 MOL      0.303273
    129 C43         2.8990    2.4470    2.6540 ca        1 MOL     -0.343301
    130 C44         0.5110    2.8490    2.7820 ca        1 MOL     -0.343301
    131 C45         3.0830    2.9500    3.9580 ca        1 MOL     -0.086493
    132 C46         0.6310    3.1370    4.1660 ca        1 MOL     -0.086493
    133 C47         1.9400    3.2300    4.7000 ca        1 MOL      0.139352
    134 O20         1.9360    3.6760    6.0290 oh        1 MOL     -0.466799
    135 H56         0.8850    2.5740   -2.3210 hn        1 MOL      0.226335
    136 H57         0.6680    3.9170    0.1490 h1        1 MOL     -0.047483
    137 H58         2.3550    1.4820    0.3170 hc        1 MOL      0.132229
    138 H59         0.4730    1.5390    0.4450 hc        1 MOL      0.132229
    139 H60         3.7510    2.1080    2.0780 ha        1 MOL      0.204501
    140 H61        -0.4680    2.8100    2.3020 ha        1 MOL      0.204501
    141 H62         4.0740    3.0800    4.3900 ha        1 MOL      0.121777
    142 H63        -0.2030    3.4900    4.7520 ha        1 MOL      0.121777
    143 H64         2.8230    3.8900    6.3170 ho        1 MOL      0.339125
    144 N13         3.1460    4.6390    0.1990 n         1 MOL     -0.351481
    145 C48         4.4530    5.3900    0.1540 c3        1 MOL      0.003338
    146 C49         5.4980    4.9230    1.2560 c         1 MOL      0.558180
    147 O21         5.6510    5.5220    2.3420 o         1 MOL     -0.568649
    148 C50         4.2330    6.8940    0.3670 c3        1 MOL      0.034692
    149 C51         3.4890    7.4360   -0.8050 c3        1 MOL     -0.251667
    150 C52         3.5110    8.9740   -0.7980 c         1 MOL      0.706663
    151 O22         3.9830    9.5850   -1.7900 o         1 MOL     -0.696734
    152 O23         3.0010    9.5640    0.1550 o         1 MOL     -0.696734
    153 H65         2.6670    4.5840    1.0830 hn        1 MOL      0.231205
    154 H66         4.9540    5.3230   -0.8130 h1        1 MOL      0.132098
    155 H67         5.1580    7.4620    0.4010 hc        1 MOL      0.029677
    156 H68         3.7090    7.1970    1.2760 hc        1 MOL      0.029677
    157 H69         2.4570    7.1120   -0.6470 hc        1 MOL      0.053018
    158 H70         3.8710    7.0460   -1.7400 hc        1 MOL      0.053018
    159 N14         6.1720    3.7770    1.0770 n         1 MOL     -0.538743
    160 C53         6.0960    2.8480   -0.0520 c3        1 MOL     -0.209904
    161 C54         6.7080    3.5520   -1.3050 c         1 MOL      0.720242
    162 O24         7.6960    4.2350   -1.1920 o         1 MOL     -0.564502
    163 C55         6.9800    1.6290    0.2580 c3        1 MOL     -0.024268
    164 C56         6.9670    0.6900   -0.9410 c3        1 MOL      0.009688
    165 C57         7.4340   -0.7190   -0.6310 c         1 MOL      0.575506
    166 O25         8.5970   -0.9840   -0.2290 o         1 MOL     -0.749731
    167 O26         6.5610   -1.5890   -0.4190 o         1 MOL     -0.749731
    168 H71         6.7610    3.5470    1.8640 hn        1 MOL      0.303017
    169 H72         5.0900    2.5500   -0.3520 h1        1 MOL      0.095947
    170 H73         6.5600    1.0400    1.0790 hc        1 MOL      0.072175
    171 H74         7.9930    1.9280    0.5300 hc        1 MOL      0.072175
    172 H75         7.5990    1.1220   -1.7170 hc        1 MOL     -0.001555
    173 H76         5.9080    0.6000   -1.1960 hc        1 MOL     -0.001555
    174 N15         6.0660    3.2650   -2.4650 n         1 MOL     -0.307459
    175 C58         6.3740    3.9510   -3.7810 c3        1 MOL     -0.189111
    176 H77         7.3020    3.5520   -4.1910 h1        1 MOL      0.090038
    177 H78         5.5600    3.7720   -4.4850 h1        1 MOL      0.090038
    178 H79         6.4830    5.0230   -3.6160 h1        1 MOL      0.090038
    179 H80         5.4820    2.4380   -2.4590 hn        1 MOL      0.225705
    180 Ca1         8.0160   -3.1290    0.9990 Ca        1 MOL      1.742798
    181 O27         7.1950   -4.1510    3.6410 oh        1 MOL     -0.800511
    182 H81         7.6440   -4.2920    4.4820 ho        1 MOL      0.383417
    183 H82         6.3380   -3.8180    3.8770 ho        1 MOL      0.383417
    184 O28        10.3990   -3.9360   -0.0930 oh        1 MOL     -0.800511
    185 H83        10.7960   -3.5140   -0.8540 ho        1 MOL      0.383417
    186 H84        11.0100   -4.6370    0.1400 ho        1 MOL      0.383417
    187 O29         8.3430   -5.9310    1.3380 oh        1 MOL     -0.800511
    188 H85         8.1410   -6.2310    2.2310 ho        1 MOL      0.383417
    189 H86         8.1380   -6.6830    0.7860 ho        1 MOL      0.383417
    190 O30         7.5950   -1.2370    2.7530 oh        1 MOL     -0.800511
    191 H87         6.6460   -1.1720    2.8790 ho        1 MOL      0.383417
    192 H88         7.9540   -1.1990    3.6350 ho        1 MOL      0.383417
    193 O31         9.9700   -2.8660    3.0230 oh        1 MOL     -0.800511
    194 H89        10.4390   -2.0880    3.3160 ho        1 MOL      0.383417
    195 H90        10.2890   -3.5750    3.5780 ho        1 MOL      0.383417
@<TRIPOS>BOND
     1    1    2 1   
     2    1    4 1   
     3    1    5 1   
     4    1    6 1   
     5    2    3 2   
     6    2    7 1   
     7    7    8 1   
     8    7   15 1   
     9    8    9 1   
    10    8   11 1   
    11    8   16 1   
    12    9   10 2   
    13    9   19 1   
    14   11   12 1   
    15   11   17 1   
    16   11   18 1   
    17   12   13 1   
    18   12   14 1   
    19   19   20 1   
    20   19   27 1   
    21   20   21 1   
    22   20   23 1   
    23   20   28 1   
    24   21   22 2   
    25   21   38 1   
    26   23   24 1   
    27   23   25 1   
    28   23   29 1   
    29   24   26 1   
    30   24   30 1   
    31   24   31 1   
    32   25   32 1   
    33   25   33 1   
    34   25   34 1   
    35   26   35 1   
    36   26   36 1   
    37   26   37 1   
    38   38   39 1   
    39   38   46 1   
    40   39   40 1   
    41   39   42 1   
    42   39   47 1   
    43   40   41 2   
    44   40   50 1   
    45   42   43 1   
    46   42   48 1   
    47   42   49 1   
    48   43   44 1   
    49   43   45 1   
    50   50   51 1   
    51   50   54 1   
    52   51   52 1   
    53   51   55 1   
    54   51   56 1   
    55   52   53 2   
    56   52   57 1   
    57   57   58 1   
    58   57   65 1   
    59   58   59 1   
    60   58   61 1   
    61   58   66 1   
    62   59   60 2   
    63   59   69 1   
    64   61   62 1   
    65   61   67 1   
    66   61   68 1   
    67   62   63 1   
    68   62   64 1   
    69   69   70 1   
    70   69   73 1   
    71   70   71 1   
    72   70   74 1   
    73   70   75 1   
    74   71   72 2   
    75   71   76 1   
    76   76   77 1   
    77   76   85 1   
    78   77   78 1   
    79   77   80 1   
    80   77   86 1   
    81   78   79 2   
    82   78   93 1   
    83   80   81 1   
    84   80   87 1   
    85   80   88 1   
    86   81   82 1   
    87   81   89 1   
    88   81   90 1   
    89   82   83 1   
    90   82   84 2   
    91   83   91 1   
    92   83   92 1   
    93   93   94 1   
    94   93  100 1   
    95   94   95 1   
    96   94   97 1   
    97   94  101 1   
    98   95   96 2   
    99   95  109 1   
   100   97   98 1   
   101   97   99 1   
   102   97  102 1   
   103   98  103 1   
   104   98  104 1   
   105   98  105 1   
   106   99  106 1   
   107   99  107 1   
   108   99  108 1   
   109  109  110 1   
   110  109  117 1   
   111  110  111 1   
   112  110  113 1   
   113  110  118 1   
   114  111  112 2   
   115  111  123 1   
   116  113  114 1   
   117  113  119 1   
   118  113  120 1   
   119  114  115 1   
   120  114  116 2   
   121  115  121 1   
   122  115  122 1   
   123  123  124 1   
   124  123  135 1   
   125  124  125 1   
   126  124  127 1   
   127  124  136 1   
   128  125  126 2   
   129  125  144 1   
   130  127  128 1   
   131  127  137 1   
   132  127  138 1   
   133  128  129 ar  
   134  128  130 ar  
   135  129  131 ar  
   136  129  139 1   
   137  130  132 ar  
   138  130  140 1   
   139  131  133 ar  
   140  131  141 1   
   141  132  133 ar  
   142  132  142 1   
   143  133  134 1   
   144  134  143 1   
   145  144  145 1   
   146  144  153 1   
   147  145  146 1   
   148  145  148 1   
   149  145  154 1   
   150  146  147 2   
   151  146  159 1   
   152  148  149 1   
   153  148  155 1   
   154  148  156 1   
   155  149  150 1   
   156  149  157 1   
   157  149  158 1   
   158  150  151 1   
   159  150  152 1   
   160  159  160 1   
   161  159  168 1   
   162  160  161 1   
   163  160  163 1   
   164  160  169 1   
   165  161  162 2   
   166  161  174 1   
   167  163  164 1   
   168  163  170 1   
   169  163  171 1   
   170  164  165 1   
   171  164  172 1   
   172  164  173 1   
   173  165  166 1   
   174  165  167 1   
   175  174  175 1   
   176  174  179 1   
   177  175  176 1   
   178  175  177 1   
   179  175  178 1   
   180  181  182 1   
   181  181  183 1   
   182  184  185 1   
   183  184  186 1   
   184  187  188 1   
   185  187  189 1   
   186  190  191 1   
   187  190  192 1   
   188  193  194 1   
   189  193  195 1   
@<TRIPOS>SUBSTRUCTURE
     1 MOL         1 TEMP              0 ****  ****    0 ROOT
