@<TRIPOS>MOLECULE
MOL
  185   180     1     0     0
SMALL
resp


@<TRIPOS>ATOM
      1 C1         -5.5130    0.7680   -4.1090 c3        1 MOL     -0.335750
      2 C2         -6.4650    0.9290   -2.8860 c         1 MOL      0.519618
      3 O1         -6.0280    1.1760   -1.7510 o         1 MOL     -0.436904
      4 H1         -5.2360    1.7530   -4.4850 hc        1 MOL      0.095295
      5 H2         -4.6150    0.2310   -3.8030 hc        1 MOL      0.095295
      6 H3         -6.0210    0.2090   -4.8950 hc        1 MOL      0.095295
      7 N1         -7.8040    0.9590   -3.0510 n         1 MOL     -0.494022
      8 C3         -8.7180    1.1490   -1.9290 c3        1 MOL      0.130614
      9 C4         -8.5200    0.1280   -0.8430 c         1 MOL      0.311468
     10 O2         -8.5820    0.3640    0.3930 o         1 MOL     -0.481496
     11 C5         -8.6900    2.6130   -1.4720 c3        1 MOL     -0.069361
     12 C6         -9.9500    2.9590   -0.7140 c         1 MOL      0.617207
     13 O3        -11.0320    2.3690   -1.0010 o         1 MOL     -0.664132
     14 O4         -9.9160    4.0720   -0.0520 o         1 MOL     -0.664132
     15 H4         -8.1440    0.7700   -3.9860 hn        1 MOL      0.303316
     16 H5         -9.7190    1.0090   -2.3390 h1        1 MOL      0.036648
     17 H6         -8.6140    3.3300   -2.2900 hc        1 MOL      0.024587
     18 H7         -7.7530    2.7440   -0.9140 hc        1 MOL      0.024587
     19 N2         -8.2270   -1.1190   -1.2670 n         1 MOL     -0.197061
     20 C7         -7.8050   -2.2330   -0.4190 c3        1 MOL      0.069839
     21 C8         -6.3210   -2.5520   -0.6610 c         1 MOL      0.536917
     22 O5         -5.9880   -3.0020   -1.7310 o         1 MOL     -0.522960
     23 C9         -8.6500   -3.5140   -0.7830 c3        1 MOL     -0.268413
     24 C10       -10.2160   -3.5040   -0.7570 c3        1 MOL     -0.027150
     25 C11       -10.8800   -3.1540    0.5920 c3        1 MOL     -0.036600
     26 C12       -10.6050   -4.3340    1.4450 c3        1 MOL     -0.003223
     27 N3        -10.7310   -4.0010    2.9220 n4        1 MOL     -0.374534
     28 H8         -8.2850   -1.3410   -2.2530 hn        1 MOL      0.188488
     29 H9         -7.9890   -1.9880    0.6280 h1        1 MOL      0.072066
     30 H10        -8.2820   -4.3410   -0.1840 hc        1 MOL      0.085748
     31 H11        -8.3820   -3.6960   -1.8270 hc        1 MOL      0.085748
     32 H12       -10.5330   -4.4960   -1.0560 hc        1 MOL      0.054182
     33 H13       -10.6250   -2.7710   -1.4580 hc        1 MOL      0.054182
     34 H14       -11.9550   -3.0110    0.4650 hc        1 MOL      0.061033
     35 H15       -10.3440   -2.2820    0.9760 hc        1 MOL      0.061033
     36 H16        -9.5480   -4.5870    1.3870 hx        1 MOL      0.085933
     37 H17       -11.3150   -5.1160    1.2120 hx        1 MOL      0.085933
     38 H18       -11.6770   -3.6980    3.1150 hn        1 MOL      0.308276
     39 H19       -10.5230   -4.7660    3.5450 hn        1 MOL      0.308276
     40 H20       -10.0360   -3.2860    3.0740 hn        1 MOL      0.308276
     41 N4         -5.4860   -2.3480    0.3820 n         1 MOL     -0.543337
     42 C13        -4.0430   -2.4730    0.4140 c3        1 MOL      0.093718
     43 C14        -3.4870   -2.8370    1.8060 c         1 MOL      0.506718
     44 O6         -3.8170   -2.3830    2.9130 o         1 MOL     -0.497861
     45 C15        -3.4640   -1.1430   -0.1150 c3        1 MOL     -0.008569
     46 C16        -1.9870   -1.2360   -0.2580 c         1 MOL      0.671776
     47 O7         -1.4910   -2.0650   -0.9980 o         1 MOL     -0.743708
     48 O8         -1.2500   -0.5290    0.4600 o         1 MOL     -0.743708
     49 H21        -5.8260   -1.9750    1.2560 hn        1 MOL      0.268640
     50 H22        -3.8080   -3.2390   -0.3280 h1        1 MOL      0.066944
     51 H23        -3.7170   -0.3900    0.6370 hc        1 MOL      0.040394
     52 H24        -3.8550   -0.7440   -1.0480 hc        1 MOL      0.040394
     53 N5         -2.5170   -3.7440    1.7560 n         1 MOL     -0.398163
     54 C17        -1.9290   -4.2580    2.9730 c3        1 MOL     -0.133207
     55 C18        -1.1180   -3.3330    3.7890 c         1 MOL      0.494626
     56 O9         -0.8520   -3.5180    4.9850 o         1 MOL     -0.546676
     57 H25        -2.1590   -3.9450    0.8330 hn        1 MOL      0.246936
     58 H26        -1.3360   -5.1640    2.7940 h1        1 MOL      0.115372
     59 H27        -2.7020   -4.5680    3.6680 h1        1 MOL      0.115372
     60 N6         -0.6310   -2.2920    3.1020 n         1 MOL     -0.287594
     61 C19         0.0630   -1.1240    3.7320 c3        1 MOL      0.042457
     62 C20        -0.4880    0.3460    3.4910 c         1 MOL      0.372141
     63 O10         0.1810    1.2890    3.9550 o         1 MOL     -0.494890
     64 C21         1.5520   -1.2150    3.7500 c3        1 MOL     -0.316028
     65 C22         2.2900   -0.8730    2.4620 c         1 MOL      0.889212
     66 N7          3.3920   -0.1690    2.7480 n         1 MOL     -0.868140
     67 O11         2.0250   -1.2150    1.3170 o         1 MOL     -0.773114
     68 H28        -0.6110   -2.2640    2.0930 hn        1 MOL      0.368002
     69 H29        -0.1860   -1.2670    4.7820 h1        1 MOL      0.118294
     70 H30         1.8700   -2.2080    4.0740 hc        1 MOL      0.104281
     71 H31         1.8510   -0.4870    4.5060 hc        1 MOL      0.104281
     72 H32         3.6500    0.0140    3.7040 hn        1 MOL      0.372581
     73 H33         4.0720    0.0010    2.0170 hn        1 MOL      0.372581
     74 N8         -1.7140    0.5570    3.0160 n         1 MOL     -0.192020
     75 C23        -2.3870    1.8520    2.7630 c3        1 MOL     -0.100979
     76 C24        -1.5680    2.8670    1.9380 c         1 MOL      0.530807
     77 O12        -1.3910    3.9860    2.4150 o         1 MOL     -0.546922
     78 H34        -2.1870   -0.2690    2.6670 hn        1 MOL      0.114837
     79 H35        -2.6310    2.3380    3.7040 h1        1 MOL      0.090444
     80 H36        -3.3100    1.6590    2.2120 h1        1 MOL      0.090444
     81 N9         -1.0060    2.4260    0.8530 n         1 MOL     -0.211578
     82 C25        -0.2410    3.1420   -0.1330 c3        1 MOL     -0.014763
     83 C26         1.0940    2.4380   -0.4090 c         1 MOL      0.599426
     84 O13         1.2290    1.2080   -0.4980 o         1 MOL     -0.533611
     85 C27        -1.1000    3.2670   -1.3740 c3        1 MOL     -0.035910
     86 C28        -2.3080    4.1510   -1.1760 ca        1 MOL      0.039387
     87 C29        -2.1800    5.5730   -1.0350 ca        1 MOL     -0.209755
     88 C30        -3.5940    3.5490   -1.0320 ca        1 MOL     -0.209755
     89 C31        -3.2780    6.4010   -0.7350 ca        1 MOL     -0.174635
     90 C32        -4.6960    4.4000   -0.7420 ca        1 MOL     -0.174635
     91 C33        -4.5470    5.8320   -0.6570 ca        1 MOL      0.270111
     92 O14        -5.6300    6.6320   -0.3660 oh        1 MOL     -0.493302
     93 H37        -1.1050    1.4410    0.6600 hn        1 MOL      0.138318
     94 H38        -0.0740    4.1810    0.1690 h1        1 MOL      0.069793
     95 H39        -1.3820    2.2720   -1.7130 hc        1 MOL      0.019638
     96 H40        -0.5280    3.7420   -2.1800 hc        1 MOL      0.019638
     97 H41        -1.2000    6.0100   -0.9330 ha        1 MOL      0.124460
     98 H42        -3.6850    2.5010   -1.2680 ha        1 MOL      0.124460
     99 H43        -3.1710    7.4680   -0.5450 ha        1 MOL      0.151749
    100 H44        -5.6790    4.0110   -0.4940 ha        1 MOL      0.151749
    101 H45        -6.3660    6.0350   -0.2710 ho        1 MOL      0.394151
    102 N10         2.1250    3.2360   -0.6070 n         1 MOL     -0.616500
    103 C34         3.4380    2.7540   -1.0540 c3        1 MOL      0.212757
    104 C35         4.4640    2.6640    0.0810 c         1 MOL      0.748529
    105 O15         4.9710    1.5560    0.2250 o         1 MOL     -0.476878
    106 C36         3.8550    3.5890   -2.2470 c3        1 MOL      0.179696
    107 C37         2.8790    3.3240   -3.4330 c3        1 MOL     -0.160378
    108 C38         5.3000    3.3810   -2.6670 c3        1 MOL     -0.455884
    109 C39         3.0240    1.9390   -4.0190 c3        1 MOL     -0.021741
    110 H46         1.9570    4.2310   -0.6900 hn        1 MOL      0.312200
    111 H47         3.4560    1.7150   -1.3760 h1        1 MOL     -0.089749
    112 H48         3.7850    4.6520   -2.0100 hc        1 MOL     -0.041316
    113 H49         3.2470    3.9470   -4.2480 hc        1 MOL      0.050361
    114 H50         1.8850    3.6480   -3.1350 hc        1 MOL      0.050361
    115 H51         6.0610    3.8740   -2.0590 hc        1 MOL      0.121407
    116 H52         5.4370    2.2900   -2.6810 hc        1 MOL      0.121407
    117 H53         5.3240    3.8410   -3.6480 hc        1 MOL      0.121407
    118 H54         2.9030    1.1350   -3.2930 hc        1 MOL      0.034183
    119 H55         2.3350    1.8540   -4.8580 hc        1 MOL      0.034183
    120 H56         4.0120    1.8030   -4.4610 hc        1 MOL      0.034183
    121 N11         4.7070    3.7120    0.9140 n         1 MOL     -0.669451
    122 C40         5.5070    3.5760    2.1540 c3        1 MOL      0.089481
    123 C41         6.8430    2.8370    2.0130 c         1 MOL      0.360231
    124 O16         7.3540    2.1650    2.9050 o         1 MOL     -0.471729
    125 C42         5.7780    4.9630    2.6810 c3        1 MOL      0.265103
    126 O17         4.5210    5.5360    2.9650 oh        1 MOL     -0.574026
    127 H57         4.2750    4.5890    0.6520 hn        1 MOL      0.292297
    128 H58         4.8880    3.1250    2.9240 h1        1 MOL      0.118428
    129 H59         6.3440    5.6010    1.9860 h1        1 MOL      0.020352
    130 H60         6.3650    4.7690    3.5820 h1        1 MOL      0.020352
    131 H61         4.0330    5.6380    2.1410 ho        1 MOL      0.381949
    132 N12         7.5630    3.0400    0.8770 n         1 MOL     -0.432275
    133 C43         8.9240    2.4510    0.5330 c3        1 MOL      0.351171
    134 C44         8.9570    0.9000    0.5200 c         1 MOL      0.412274
    135 O18        10.0730    0.3530    0.4630 o         1 MOL     -0.526880
    136 C45        10.0220    3.1080    1.3610 c3        1 MOL     -0.436828
    137 H62         7.1990    3.6440    0.1650 hn        1 MOL      0.246740
    138 H63         9.0620    2.7810   -0.5010 h1        1 MOL      0.008991
    139 H64         9.9130    2.7500    2.3820 hc        1 MOL      0.126242
    140 H65        10.9890    2.8160    0.9350 hc        1 MOL      0.126242
    141 H66         9.8240    4.1700    1.2970 hc        1 MOL      0.126242
    142 N13         7.7720    0.2580    0.5040 n         1 MOL     -0.422116
    143 C46         7.6530   -1.1410    0.7500 c3        1 MOL      0.507226
    144 C47         7.4490   -1.9810   -0.5620 c         1 MOL      0.274959
    145 O19         7.1840   -1.3760   -1.5460 o         1 MOL     -0.432936
    146 C48         6.5850   -1.3900    1.8000 c3        1 MOL     -0.218775
    147 H67         7.0220    0.9300    0.4840 hn        1 MOL      0.106394
    148 H68         8.5610   -1.5520    1.2090 h1        1 MOL     -0.046786
    149 H69         6.5530   -2.4570    2.0200 hc        1 MOL      0.057778
    150 H70         6.7820   -0.7920    2.6950 hc        1 MOL      0.057778
    151 H71         5.6720   -1.0050    1.3680 hc        1 MOL      0.057778
    152 N14         7.6630   -3.2900   -0.4790 n         1 MOL     -0.400280
    153 C49         7.2440   -4.3130   -1.4240 c3        1 MOL      0.036210
    154 C50         7.8510   -4.2360   -2.8410 c         1 MOL      0.404995
    155 O20         7.2850   -4.6540   -3.8960 o         1 MOL     -0.506523
    156 C51         5.6960   -4.1790   -1.6340 c3        1 MOL      0.132813
    157 C52         5.0360   -4.2520   -0.2470 c3        1 MOL     -0.044159
    158 C53         3.5230   -4.3860   -0.3710 c         1 MOL      0.665899
    159 O21         2.8110   -3.4240   -0.7590 o         1 MOL     -0.682481
    160 O22         2.9760   -5.4850   -0.2260 o         1 MOL     -0.682481
    161 H72         8.0840   -3.6780    0.3440 hn        1 MOL      0.275206
    162 H73         7.4680   -5.3290   -1.1000 h1        1 MOL      0.070118
    163 H74         5.4060   -5.0380   -2.2220 hc        1 MOL     -0.014401
    164 H75         5.4090   -3.2860   -2.1840 hc        1 MOL     -0.014401
    165 H76         5.1180   -3.4160    0.4370 hc        1 MOL     -0.025328
    166 H77         5.4100   -5.1360    0.2740 hc        1 MOL     -0.025328
    167 N15         9.1520   -3.8890   -2.8020 n         1 MOL     -0.275364
    168 C54        10.0120   -3.5520   -3.9820 c3        1 MOL     -0.081666
    169 H78         9.4780   -3.7920   -4.9010 h1        1 MOL      0.076180
    170 H79        10.2480   -2.4880   -3.9690 h1        1 MOL      0.076180
    171 H80        10.9350   -4.1300   -3.9370 h1        1 MOL      0.076180
    172 H81         9.5300   -3.8210   -1.8680 hn        1 MOL      0.216133
    173 Ca1         1.0380   -1.3310   -0.9910 Ca        1 MOL      1.803202
    174 O23         0.3910    0.0040   -3.1200 oh        1 MOL     -0.926760
    175 H82         0.4400    0.9100   -3.4090 ho        1 MOL      0.445813
    176 H83        -0.3410   -0.3680   -3.6040 ho        1 MOL      0.445813
    177 O24         3.6220   -1.1090   -1.9830 oh        1 MOL     -0.926760
    178 H84         3.8520   -1.8930   -1.4800 ho        1 MOL      0.445813
    179 H85         4.4250   -0.8620   -2.4360 ho        1 MOL      0.445813
    180 O25         0.3090   -3.8390    0.5860 oh        1 MOL     -0.926760
    181 H86         1.1900   -4.0530    0.2780 ho        1 MOL      0.445813
    182 H87        -0.2640   -4.3930    0.0660 ho        1 MOL      0.445813
    183 O26         0.5600   -3.1800   -2.9580 oh        1 MOL     -0.926760
    184 H88         0.8090   -4.0950   -3.0830 ho        1 MOL      0.445813
    185 H89         0.1470   -2.9320   -3.7920 ho        1 MOL      0.445813
@<TRIPOS>BOND
     1    1    2 1   
     2    1    4 1   
     3    1    5 1   
     4    1    6 1   
     5    2    3 2   
     6    2    7 1   
     7    7    8 1   
     8    7   15 1   
     9    8    9 1   
    10    8   11 1   
    11    8   16 1   
    12    9   10 2   
    13    9   19 1   
    14   11   12 1   
    15   11   17 1   
    16   11   18 1   
    17   12   13 1   
    18   12   14 1   
    19   19   20 1   
    20   19   28 1   
    21   20   21 1   
    22   20   23 1   
    23   20   29 1   
    24   21   22 2   
    25   21   41 1   
    26   23   24 1   
    27   23   30 1   
    28   23   31 1   
    29   24   25 1   
    30   24   32 1   
    31   24   33 1   
    32   25   26 1   
    33   25   34 1   
    34   25   35 1   
    35   26   27 1   
    36   26   36 1   
    37   26   37 1   
    38   27   38 1   
    39   27   39 1   
    40   27   40 1   
    41   41   42 1   
    42   41   49 1   
    43   42   43 1   
    44   42   45 1   
    45   42   50 1   
    46   43   44 2   
    47   43   53 1   
    48   45   46 1   
    49   45   51 1   
    50   45   52 1   
    51   46   47 1   
    52   46   48 1   
    53   53   54 1   
    54   53   57 1   
    55   54   55 1   
    56   54   58 1   
    57   54   59 1   
    58   55   56 2   
    59   55   60 1   
    60   60   61 1   
    61   60   68 1   
    62   61   62 1   
    63   61   64 1   
    64   61   69 1   
    65   62   63 2   
    66   62   74 1   
    67   64   65 1   
    68   64   70 1   
    69   64   71 1   
    70   65   66 1   
    71   65   67 2   
    72   66   72 1   
    73   66   73 1   
    74   74   75 1   
    75   74   78 1   
    76   75   76 1   
    77   75   79 1   
    78   75   80 1   
    79   76   77 2   
    80   76   81 1   
    81   81   82 1   
    82   81   93 1   
    83   82   83 1   
    84   82   85 1   
    85   82   94 1   
    86   83   84 2   
    87   83  102 1   
    88   85   86 1   
    89   85   95 1   
    90   85   96 1   
    91   86   87 ar  
    92   86   88 ar  
    93   87   89 ar  
    94   87   97 1   
    95   88   90 ar  
    96   88   98 1   
    97   89   91 ar  
    98   89   99 1   
    99   90   91 ar  
   100   90  100 1   
   101   91   92 1   
   102   92  101 1   
   103  102  103 1   
   104  102  110 1   
   105  103  104 1   
   106  103  106 1   
   107  103  111 1   
   108  104  105 2   
   109  104  121 1   
   110  106  107 1   
   111  106  108 1   
   112  106  112 1   
   113  107  109 1   
   114  107  113 1   
   115  107  114 1   
   116  108  115 1   
   117  108  116 1   
   118  108  117 1   
   119  109  118 1   
   120  109  119 1   
   121  109  120 1   
   122  121  122 1   
   123  121  127 1   
   124  122  123 1   
   125  122  125 1   
   126  122  128 1   
   127  123  124 2   
   128  123  132 1   
   129  125  126 1   
   130  125  129 1   
   131  125  130 1   
   132  126  131 1   
   133  132  133 1   
   134  132  137 1   
   135  133  134 1   
   136  133  136 1   
   137  133  138 1   
   138  134  135 2   
   139  134  142 1   
   140  136  139 1   
   141  136  140 1   
   142  136  141 1   
   143  142  143 1   
   144  142  147 1   
   145  143  144 1   
   146  143  146 1   
   147  143  148 1   
   148  144  145 2   
   149  144  152 1   
   150  146  149 1   
   151  146  150 1   
   152  146  151 1   
   153  152  153 1   
   154  152  161 1   
   155  153  154 1   
   156  153  156 1   
   157  153  162 1   
   158  154  155 2   
   159  154  167 1   
   160  156  157 1   
   161  156  163 1   
   162  156  164 1   
   163  157  158 1   
   164  157  165 1   
   165  157  166 1   
   166  158  159 1   
   167  158  160 1   
   168  167  168 1   
   169  167  172 1   
   170  168  169 1   
   171  168  170 1   
   172  168  171 1   
   173  174  175 1   
   174  174  176 1   
   175  177  178 1   
   176  177  179 1   
   177  180  181 1   
   178  180  182 1   
   179  183  184 1   
   180  183  185 1   
@<TRIPOS>SUBSTRUCTURE
     1 MOL         1 TEMP              0 ****  ****    0 ROOT
