@<TRIPOS>MOLECULE
MOL
  189   185     1     0     0
SMALL
resp


@<TRIPOS>ATOM
      1 C1          4.8000    3.6140   -4.0070 c3        1 MOL     -0.417031
      2 C2          5.4880    2.9030   -2.7580 c         1 MOL      0.746740
      3 O1          4.9590    2.9590   -1.6720 o         1 MOL     -0.610027
      4 H1          5.3690    4.5030   -4.2780 hc        1 MOL      0.107833
      5 H2          4.7780    2.9260   -4.8510 hc        1 MOL      0.107833
      6 H3          3.7810    3.9020   -3.7450 hc        1 MOL      0.107833
      7 N1          6.7100    2.3680   -2.9520 n         1 MOL     -0.590890
      8 C3          7.3850    1.4470   -2.0530 c3        1 MOL      0.294941
      9 C4          6.3770    0.3230   -1.7480 c         1 MOL      0.384662
     10 O2          5.8390    0.2870   -0.6290 o         1 MOL     -0.602993
     11 C5          8.1800    2.0830   -0.8720 c3        1 MOL     -0.180215
     12 C6          7.6150    3.1880    0.0150 c         1 MOL      0.784608
     13 O3          6.8830    2.8200    0.9550 o         1 MOL     -0.752769
     14 O4          7.8200    4.3800   -0.3270 o         1 MOL     -0.752769
     15 H4          7.0290    2.3260   -3.9070 hn        1 MOL      0.285046
     16 H5          8.1880    1.0110   -2.6340 h1        1 MOL     -0.008562
     17 H6          9.1450    2.4600   -1.2300 hc        1 MOL      0.021675
     18 H7          8.3500    1.2520   -0.1870 hc        1 MOL      0.021675
     19 N2          6.0620   -0.4250   -2.7860 n         1 MOL     -0.430100
     20 C7          5.0970   -1.5470   -2.8830 c3        1 MOL      0.069838
     21 C8          5.6790   -2.7590   -2.0190 c         1 MOL      0.347552
     22 O5          6.1590   -3.8010   -2.5200 o         1 MOL     -0.566457
     23 C9          3.6400   -1.1620   -2.4830 c3        1 MOL      0.148843
     24 C10         2.6810   -2.3900   -2.4090 c3        1 MOL      0.279380
     25 C11         3.0520   -0.1070   -3.5050 c3        1 MOL     -0.561116
     26 C12         2.7160   -3.2310   -3.7440 c3        1 MOL     -0.254077
     27 H8          6.5290   -0.2630   -3.6660 hn        1 MOL      0.270674
     28 H9          5.0530   -1.9360   -3.8970 h1        1 MOL      0.026680
     29 H10         3.6800   -0.8450   -1.4440 hc        1 MOL      0.112945
     30 H11         1.6730   -2.0460   -2.1910 hc        1 MOL     -0.070454
     31 H12         3.0600   -3.0550   -1.6250 hc        1 MOL     -0.070454
     32 H13         3.7210    0.7570   -3.4110 hc        1 MOL      0.131020
     33 H14         2.9500   -0.3470   -4.5550 hc        1 MOL      0.131020
     34 H15         2.0660    0.1510   -3.1310 hc        1 MOL      0.131020
     35 H16         1.8190   -3.8400   -3.7780 hc        1 MOL      0.033510
     36 H17         2.7850   -2.5000   -4.5480 hc        1 MOL      0.033510
     37 H18         3.5980   -3.8690   -3.7150 hc        1 MOL      0.033510
     38 N3          5.6430   -2.5910   -0.7100 n         1 MOL     -0.026680
     39 C13         6.4560   -3.3720    0.1940 c3        1 MOL     -0.084067
     40 C14         5.7650   -4.6630    0.7300 c         1 MOL      0.604423
     41 O6          6.3940   -5.6780    0.5820 o         1 MOL     -0.561559
     42 C15         6.9520   -2.3840    1.1940 c3        1 MOL     -0.216370
     43 C16         7.6440   -2.9960    2.3470 c         1 MOL      0.700297
     44 O7          8.5980   -3.7690    2.1260 o         1 MOL     -0.714208
     45 O8          7.2270   -2.7030    3.4990 o         1 MOL     -0.714208
     46 H19         5.3770   -1.6610   -0.3970 hn        1 MOL      0.207157
     47 H20         7.2490   -3.7200   -0.4670 h1        1 MOL      0.082319
     48 H21         6.1320   -1.7320    1.5250 hc        1 MOL      0.071500
     49 H22         7.6570   -1.7580    0.6580 hc        1 MOL      0.071500
     50 N4          4.5560   -4.6110    1.2380 n         1 MOL     -0.515718
     51 C17         3.7950   -3.4500    1.7850 c3        1 MOL      0.083639
     52 C18         2.5120   -3.8540    2.5120 c         1 MOL      0.632781
     53 O9          2.2270   -5.0410    2.5310 o         1 MOL     -0.580265
     54 H23         4.1040   -5.5090    1.3350 hn        1 MOL      0.267111
     55 H24         3.5430   -2.9530    0.8480 h1        1 MOL      0.081891
     56 H25         4.3920   -2.7440    2.3670 h1        1 MOL      0.081891
     57 N5          1.7540   -3.0080    3.2050 n         1 MOL     -0.632356
     58 C19         1.9070   -1.5920    3.3420 c3        1 MOL      0.085377
     59 C20         2.3470   -0.8310    2.0900 c         1 MOL     -0.018423
     60 O10         3.3690   -0.0990    2.0930 o         1 MOL     -0.424088
     61 C21         2.9590   -1.3060    4.4750 c3        1 MOL     -0.076489
     62 C22         3.1600    0.1560    4.8460 c         1 MOL      0.612144
     63 O11         2.2180    0.9980    4.7320 o         1 MOL     -0.665435
     64 O12         4.2950    0.4680    5.2780 o         1 MOL     -0.665435
     65 H26         1.0490   -3.3410    3.8540 hn        1 MOL      0.350970
     66 H27         0.9400   -1.2330    3.6860 h1        1 MOL      0.066397
     67 H28         3.9070   -1.7480    4.1720 hc        1 MOL      0.048944
     68 H29         2.5650   -1.8920    5.3050 hc        1 MOL      0.048944
     69 N6          1.6980   -0.9260    0.9220 n         1 MOL      0.188532
     70 C23         0.2130   -1.2220    0.8430 c3        1 MOL      0.020454
     71 C24        -0.0740   -2.6210    0.3080 c         1 MOL      0.478050
     72 O13         0.8340   -3.3560   -0.0770 o         1 MOL     -0.478925
     73 H30         2.0550   -0.4400    0.1170 hn        1 MOL     -0.022049
     74 H31        -0.3150   -0.6020    0.1300 h1        1 MOL      0.043565
     75 H32        -0.2800   -0.9220    1.7690 h1        1 MOL      0.043565
     76 N7         -1.2990   -3.0780    0.5590 n         1 MOL     -0.453271
     77 C25        -1.7620   -4.4910    0.2140 c3        1 MOL     -0.081526
     78 C26        -2.4970   -4.5110   -1.1480 c         1 MOL      0.435331
     79 O14        -2.6160   -5.6210   -1.6910 o         1 MOL     -0.536478
     80 C27        -2.5150   -5.0200    1.4080 c3        1 MOL      0.051162
     81 C28        -3.5990   -4.1780    2.1060 c3        1 MOL     -0.155661
     82 C29        -4.7800   -4.0220    1.2060 c         1 MOL      0.533896
     83 N8         -5.8270   -4.8650    1.2190 n         1 MOL     -0.660246
     84 O15        -4.8080   -3.1230    0.4080 o         1 MOL     -0.546079
     85 H33        -2.0240   -2.5030    0.9730 hn        1 MOL      0.240501
     86 H34        -0.8360   -5.0700    0.2180 h1        1 MOL      0.154108
     87 H35        -1.8020   -5.3560    2.1590 hc        1 MOL      0.027057
     88 H36        -3.0300   -5.9540    1.1740 hc        1 MOL      0.027057
     89 H37        -3.2220   -3.2150    2.4800 hc        1 MOL      0.060609
     90 H38        -3.8850   -4.6910    3.0320 hc        1 MOL      0.060609
     91 H39        -5.9240   -5.6210    1.8790 hn        1 MOL      0.323827
     92 H40        -6.5150   -4.6850    0.5060 hn        1 MOL      0.323827
     93 N9         -2.9650   -3.3420   -1.6320 n         1 MOL     -0.023495
     94 C30        -3.4260   -3.1880   -2.9390 c3        1 MOL     -0.351311
     95 C31        -4.7360   -2.3340   -3.0700 c         1 MOL      0.590189
     96 O16        -5.1470   -2.0430   -4.1570 o         1 MOL     -0.584827
     97 C32        -2.2390   -2.4810   -3.6920 c3        1 MOL      0.165490
     98 C33        -1.1440   -3.4640   -3.9400 c3        1 MOL     -0.135067
     99 C34        -1.6900   -1.2060   -3.0220 c3        1 MOL     -0.135067
    100 H41        -2.8840   -2.5360   -1.0260 hn        1 MOL      0.185666
    101 H42        -3.7570   -4.1170   -3.3930 h1        1 MOL      0.153593
    102 H43        -2.5680   -2.1250   -4.6710 hc        1 MOL     -0.001947
    103 H44        -1.4580   -4.3710   -4.4500 hc        1 MOL      0.037998
    104 H45        -0.4590   -3.0220   -4.6700 hc        1 MOL      0.037998
    105 H46        -0.6360   -3.7200   -3.0110 hc        1 MOL      0.037998
    106 H47        -1.1040   -0.5980   -3.7050 hc        1 MOL      0.037998
    107 H48        -2.5490   -0.6320   -2.6860 hc        1 MOL      0.037998
    108 H49        -0.9480   -1.4250   -2.2550 hc        1 MOL      0.037998
    109 N10        -5.3410   -1.8990   -1.9790 n         1 MOL     -0.165539
    110 C35        -6.6680   -1.1800   -1.9460 c3        1 MOL     -0.188018
    111 C36        -6.7430    0.2190   -1.3010 c         1 MOL      0.586820
    112 O17        -7.7590    0.9490   -1.4530 o         1 MOL     -0.563021
    113 C37        -7.5670   -2.0440   -1.0430 c3        1 MOL     -0.371479
    114 C38        -7.8730   -3.4160   -1.5300 c         1 MOL      0.576822
    115 N11        -8.2080   -3.6650   -2.7270 n         1 MOL     -0.665668
    116 O18        -7.6970   -4.3980   -0.8530 o         1 MOL     -0.538112
    117 H50        -4.9090   -2.1040   -1.0970 hn        1 MOL      0.217266
    118 H51        -7.0680   -1.0490   -2.9380 h1        1 MOL      0.133136
    119 H52        -8.5410   -1.5880   -0.8700 hc        1 MOL      0.166750
    120 H53        -7.2100   -2.0850   -0.0050 hc        1 MOL      0.166750
    121 H54        -8.4080   -2.9070   -3.3630 hn        1 MOL      0.340586
    122 H55        -8.4650   -4.6070   -2.9950 hn        1 MOL      0.340586
    123 N12        -5.6890    0.6090   -0.6480 n         1 MOL     -0.412544
    124 C39        -5.6740    1.9110    0.0880 c3        1 MOL      0.225429
    125 C40        -4.3480    2.6930    0.0630 c         1 MOL      0.360003
    126 O19        -3.2510    2.1810   -0.1630 o         1 MOL     -0.437632
    127 C41        -5.9920    1.6160    1.5390 c3        1 MOL     -0.094574
    128 C42        -7.3570    1.0520    1.8800 ca        1 MOL     -0.016970
    129 C43        -8.4590    1.9040    2.0240 ca        1 MOL     -0.094989
    130 C44        -7.4260   -0.3460    2.1410 ca        1 MOL     -0.094989
    131 C45        -9.6930    1.2690    2.3540 ca        1 MOL     -0.296570
    132 C46        -8.6460   -0.9090    2.5620 ca        1 MOL     -0.296570
    133 C47        -9.8250   -0.1030    2.5060 ca        1 MOL      0.363456
    134 O20       -11.0780   -0.6430    2.4730 oh        1 MOL     -0.503766
    135 H56        -4.8260    0.0730   -0.6270 hn        1 MOL      0.199763
    136 H57        -6.4940    2.4260   -0.4210 h1        1 MOL      0.021329
    137 H58        -5.8290    2.5290    2.1120 hc        1 MOL      0.068382
    138 H59        -5.2130    0.9010    1.8470 hc        1 MOL      0.068382
    139 H60        -8.4050    2.9410    1.7550 ha        1 MOL      0.126160
    140 H61        -6.5070   -0.9100    2.2160 ha        1 MOL      0.126160
    141 H62       -10.6590    1.7580    2.3850 ha        1 MOL      0.129915
    142 H63        -8.7210   -1.9760    2.7400 ha        1 MOL      0.129915
    143 H64       -11.7300    0.0580    2.5420 ho        1 MOL      0.355091
    144 N13        -4.4500    4.0090    0.3000 n         1 MOL     -0.522320
    145 C48        -3.3940    5.0870    0.5860 c3        1 MOL      0.119150
    146 C49        -2.3090    5.3060   -0.4870 c         1 MOL      0.160007
    147 O21        -1.8850    6.4780   -0.6880 o         1 MOL     -0.490199
    148 C50        -2.8520    4.8310    1.9400 c3        1 MOL      0.312887
    149 C51        -3.8230    5.1190    3.0980 c3        1 MOL     -0.332238
    150 C52        -3.3240    5.0900    4.5490 c         1 MOL      0.741128
    151 O22        -4.1700    5.0630    5.5020 o         1 MOL     -0.733621
    152 O23        -2.0990    5.0050    4.7190 o         1 MOL     -0.733621
    153 H65        -5.4030    4.3150    0.4480 hn        1 MOL      0.297324
    154 H66        -3.9140    6.0430    0.6130 h1        1 MOL      0.051876
    155 H67        -1.9840    5.4620    2.0920 hc        1 MOL     -0.005930
    156 H68        -2.3980    3.8360    1.9540 hc        1 MOL     -0.005930
    157 H69        -4.7620    4.5940    2.9440 hc        1 MOL      0.013973
    158 H70        -4.0780    6.1640    2.9030 hc        1 MOL      0.013973
    159 N14        -1.7730    4.2980   -1.1890 n         1 MOL     -0.047170
    160 C53        -0.6540    4.4150   -2.1560 c3        1 MOL     -0.106914
    161 C54        -0.9980    5.2970   -3.3830 c         1 MOL      0.451765
    162 O24        -0.1290    5.8900   -4.0420 o         1 MOL     -0.528068
    163 C55        -0.2180    2.9600   -2.6140 c3        1 MOL     -0.094227
    164 C56         0.1180    1.9000   -1.5460 c3        1 MOL      0.343963
    165 C57         1.4780    2.1860   -0.7960 c         1 MOL      0.649792
    166 O25         1.7590    3.2860   -0.2830 o         1 MOL     -0.714053
    167 O26         2.3700    1.3190   -0.5820 o         1 MOL     -0.714053
    168 H71        -2.2180    3.3910   -1.1210 hn        1 MOL      0.184608
    169 H72         0.2010    4.8530   -1.6360 h1        1 MOL      0.168615
    170 H73         0.6510    3.0490   -3.2760 hc        1 MOL      0.008807
    171 H74        -1.0830    2.5510   -3.1240 hc        1 MOL      0.008807
    172 H75         0.0880    0.8650   -1.8830 hc        1 MOL     -0.169948
    173 H76        -0.5970    2.0060   -0.7250 hc        1 MOL     -0.169948
    174 N15        -2.2940    5.3460   -3.7710 n         1 MOL     -0.193662
    175 C58        -2.7850    6.0000   -5.0010 c3        1 MOL     -0.298553
    176 H77        -2.1700    6.8730   -5.2180 h1        1 MOL      0.114324
    177 H78        -2.7270    5.2990   -5.8340 h1        1 MOL      0.114324
    178 H79        -3.8200    6.3120   -4.8590 h1        1 MOL      0.114324
    179 H80        -2.9360    4.7680   -3.2570 hn        1 MOL      0.206772
    180 Ca1         4.2090    2.4290    0.8920 Ca        1 MOL      1.801831
    181 O27         4.4730    5.1970    1.4610 oh        1 MOL     -0.835139
    182 H81         4.4640    6.0440    1.9110 ho        1 MOL      0.401636
    183 H82         5.2890    5.1950    0.9650 ho        1 MOL      0.401636
    184 O28         5.1300    2.4450    3.3630 oh        1 MOL     -0.835139
    185 H83         4.8980    1.6910    3.9040 ho        1 MOL      0.401636
    186 H84         4.8090    3.2030    3.8570 ho        1 MOL      0.401636
    187 O29         2.2120    2.6940    2.7790 oh        1 MOL     -0.835139
    188 H85         2.2590    1.9970    3.4300 ho        1 MOL      0.401636
    189 H86         1.2840    2.9510    2.7740 ho        1 MOL      0.401636
@<TRIPOS>BOND
     1    1    2 1   
     2    1    4 1   
     3    1    5 1   
     4    1    6 1   
     5    2    3 2   
     6    2    7 1   
     7    7    8 1   
     8    7   15 1   
     9    8    9 1   
    10    8   11 1   
    11    8   16 1   
    12    9   10 2   
    13    9   19 1   
    14   11   12 1   
    15   11   17 1   
    16   11   18 1   
    17   12   13 1   
    18   12   14 1   
    19   19   20 1   
    20   19   27 1   
    21   20   21 1   
    22   20   23 1   
    23   20   28 1   
    24   21   22 2   
    25   21   38 1   
    26   23   24 1   
    27   23   25 1   
    28   23   29 1   
    29   24   26 1   
    30   24   30 1   
    31   24   31 1   
    32   25   32 1   
    33   25   33 1   
    34   25   34 1   
    35   26   35 1   
    36   26   36 1   
    37   26   37 1   
    38   38   39 1   
    39   38   46 1   
    40   39   40 1   
    41   39   42 1   
    42   39   47 1   
    43   40   41 2   
    44   40   50 1   
    45   42   43 1   
    46   42   48 1   
    47   42   49 1   
    48   43   44 1   
    49   43   45 1   
    50   50   51 1   
    51   50   54 1   
    52   51   52 1   
    53   51   55 1   
    54   51   56 1   
    55   52   53 2   
    56   52   57 1   
    57   57   58 1   
    58   57   65 1   
    59   58   59 1   
    60   58   61 1   
    61   58   66 1   
    62   59   60 2   
    63   59   69 1   
    64   61   62 1   
    65   61   67 1   
    66   61   68 1   
    67   62   63 1   
    68   62   64 1   
    69   69   70 1   
    70   69   73 1   
    71   70   71 1   
    72   70   74 1   
    73   70   75 1   
    74   71   72 2   
    75   71   76 1   
    76   76   77 1   
    77   76   85 1   
    78   77   78 1   
    79   77   80 1   
    80   77   86 1   
    81   78   79 2   
    82   78   93 1   
    83   80   81 1   
    84   80   87 1   
    85   80   88 1   
    86   81   82 1   
    87   81   89 1   
    88   81   90 1   
    89   82   83 1   
    90   82   84 2   
    91   83   91 1   
    92   83   92 1   
    93   93   94 1   
    94   93  100 1   
    95   94   95 1   
    96   94   97 1   
    97   94  101 1   
    98   95   96 2   
    99   95  109 1   
   100   97   98 1   
   101   97   99 1   
   102   97  102 1   
   103   98  103 1   
   104   98  104 1   
   105   98  105 1   
   106   99  106 1   
   107   99  107 1   
   108   99  108 1   
   109  109  110 1   
   110  109  117 1   
   111  110  111 1   
   112  110  113 1   
   113  110  118 1   
   114  111  112 2   
   115  111  123 1   
   116  113  114 1   
   117  113  119 1   
   118  113  120 1   
   119  114  115 1   
   120  114  116 2   
   121  115  121 1   
   122  115  122 1   
   123  123  124 1   
   124  123  135 1   
   125  124  125 1   
   126  124  127 1   
   127  124  136 1   
   128  125  126 2   
   129  125  144 1   
   130  127  128 1   
   131  127  137 1   
   132  127  138 1   
   133  128  129 ar  
   134  128  130 ar  
   135  129  131 ar  
   136  129  139 1   
   137  130  132 ar  
   138  130  140 1   
   139  131  133 ar  
   140  131  141 1   
   141  132  133 ar  
   142  132  142 1   
   143  133  134 1   
   144  134  143 1   
   145  144  145 1   
   146  144  153 1   
   147  145  146 1   
   148  145  148 1   
   149  145  154 1   
   150  146  147 2   
   151  146  159 1   
   152  148  149 1   
   153  148  155 1   
   154  148  156 1   
   155  149  150 1   
   156  149  157 1   
   157  149  158 1   
   158  150  151 1   
   159  150  152 1   
   160  159  160 1   
   161  159  168 1   
   162  160  161 1   
   163  160  163 1   
   164  160  169 1   
   165  161  162 2   
   166  161  174 1   
   167  163  164 1   
   168  163  170 1   
   169  163  171 1   
   170  164  165 1   
   171  164  172 1   
   172  164  173 1   
   173  165  166 1   
   174  165  167 1   
   175  174  175 1   
   176  174  179 1   
   177  175  176 1   
   178  175  177 1   
   179  175  178 1   
   180  181  182 1   
   181  181  183 1   
   182  184  185 1   
   183  184  186 1   
   184  187  188 1   
   185  187  189 1   
@<TRIPOS>SUBSTRUCTURE
     1 MOL         1 TEMP              0 ****  ****    0 ROOT
