@<TRIPOS>MOLECULE
MOL
  192   187     1     0     0
SMALL
resp


@<TRIPOS>ATOM
      1 C1          4.8960    1.3450    6.2100 c3        1 MOL     -0.227988
      2 C2          4.5470    1.0050    4.7430 c         1 MOL      0.825045
      3 O1          4.3980    1.9750    3.9900 o         1 MOL     -0.605018
      4 H1          5.3870    0.4890    6.6740 hc        1 MOL      0.054271
      5 H2          5.5640    2.2060    6.2350 hc        1 MOL      0.054271
      6 H3          3.9820    1.5790    6.7560 hc        1 MOL      0.054271
      7 N1          4.6500   -0.2630    4.2470 n         1 MOL     -0.848898
      8 C3          4.6560   -0.5720    2.8020 c3        1 MOL      1.001010
      9 C4          3.2510   -0.2990    2.1900 c         1 MOL     -0.221020
     10 O2          3.1100   -0.5260    1.0280 o         1 MOL     -0.052051
     11 C5          5.0610   -2.0260    2.5880 c3        1 MOL     -0.303460
     12 C6          6.3970   -2.4290    3.2410 c         1 MOL      0.630528
     13 O3          6.5520   -2.3120    4.4530 o         1 MOL     -0.651890
     14 O4          7.3420   -2.6860    2.4410 o         1 MOL     -0.651890
     15 H4          4.9940   -1.0410    4.7790 hn        1 MOL      0.326330
     16 H5          5.4770   -0.0420    2.3260 h1        1 MOL     -0.072878
     17 H6          5.2050   -2.3110    1.5460 hc        1 MOL      0.009373
     18 H7          4.3200   -2.7070    3.0180 hc        1 MOL      0.009373
     19 N2          2.2530    0.1970    2.8640 n         1 MOL     -0.415271
     20 C7          0.8570    0.3850    2.2880 c3        1 MOL      0.227709
     21 C8          0.7870    1.8300    1.7070 c         1 MOL      0.537711
     22 O5          1.0800    2.7660    2.4410 o         1 MOL     -0.515113
     23 C9         -0.2380    0.1470    3.3420 c3        1 MOL     -0.153956
     24 C10        -0.5770   -1.3410    3.6390 c3        1 MOL      0.090690
     25 C11        -1.0790   -1.6350    5.0750 c3        1 MOL      0.005719
     26 C12        -1.3300   -3.0940    5.2620 c3        1 MOL      0.159262
     27 N3         -1.9510   -3.2860    6.5710 n4        1 MOL     -0.386743
     28 H8          2.4140    0.7650    3.6930 hn        1 MOL      0.244100
     29 H9          0.7010   -0.3260    1.4820 h1        1 MOL      0.165216
     30 H10        -1.1490    0.6510    3.0130 hc        1 MOL      0.021276
     31 H11         0.0410    0.6640    4.2580 hc        1 MOL      0.021276
     32 H12         0.3460   -1.8680    3.4440 hc        1 MOL     -0.004811
     33 H13        -1.3600   -1.5670    2.9110 hc        1 MOL     -0.004811
     34 H14        -2.0560   -1.1640    5.1460 hc        1 MOL      0.018323
     35 H15        -0.3460   -1.3010    5.8070 hc        1 MOL      0.018323
     36 H16        -0.3160   -3.4950    5.2600 hx        1 MOL      0.029406
     37 H17        -1.8450   -3.5450    4.4110 hx        1 MOL      0.029406
     38 H18        -2.8020   -2.7620    6.7640 hn        1 MOL      0.325457
     39 H19        -2.1330   -4.2470    6.8140 hn        1 MOL      0.325457
     40 H20        -1.3530   -2.9610    7.3170 hn        1 MOL      0.325457
     41 N4          0.0450    2.0310    0.6570 n         1 MOL     -0.383604
     42 C13        -0.5510    1.0310   -0.2910 c3        1 MOL     -0.101588
     43 C14        -1.4600   -0.0840    0.2890 c         1 MOL      0.899172
     44 O6         -1.0580   -1.2270    0.1580 o         1 MOL     -0.661081
     45 C15         0.5040    0.4700   -1.3010 c3        1 MOL     -0.481679
     46 C16         1.0230    1.5210   -2.2670 c         1 MOL      0.857811
     47 O7          1.9800    1.3110   -3.0330 o         1 MOL     -0.734022
     48 O8          0.5300    2.6880   -2.2380 o         1 MOL     -0.734022
     49 H21        -0.0040    2.9970    0.3860 hn        1 MOL      0.185803
     50 H22        -1.3170    1.5710   -0.8530 h1        1 MOL      0.023414
     51 H23         0.0910   -0.3640   -1.8740 hc        1 MOL      0.182591
     52 H24         1.3460    0.1310   -0.7030 hc        1 MOL      0.182591
     53 N5         -2.6020    0.1900    0.9090 n         1 MOL     -0.533209
     54 C17        -3.2440    1.4570    1.1070 c3        1 MOL     -0.280842
     55 C18        -4.2970    1.1880    2.1940 c         1 MOL      0.649977
     56 O9         -4.1850    0.3740    3.1320 o         1 MOL     -0.576318
     57 H25        -3.0740   -0.5430    1.4190 hn        1 MOL      0.318341
     58 H26        -3.5720    1.8980    0.1660 h1        1 MOL      0.190016
     59 H27        -2.5300    2.1150    1.6030 h1        1 MOL      0.190016
     60 N6         -5.4270    1.9290    2.1810 n         1 MOL     -0.426039
     61 C19        -5.7990    3.0790    1.3270 c3        1 MOL     -0.019043
     62 C20        -7.2730    3.0760    0.7910 c         1 MOL      0.621284
     63 O10        -7.5600    3.7120   -0.2420 o         1 MOL     -0.540423
     64 C21        -5.4010    4.3610    2.0540 c3        1 MOL     -0.261091
     65 C22        -6.1790    4.6410    3.3620 c         1 MOL      0.770044
     66 O11        -6.0430    5.7960    3.8670 o         1 MOL     -0.695487
     67 O12        -6.9860    3.8200    3.8730 o         1 MOL     -0.695487
     68 H28        -5.9670    1.8790    3.0310 hn        1 MOL      0.239835
     69 H29        -5.1440    3.0580    0.4590 h1        1 MOL      0.032982
     70 H30        -5.6540    5.1190    1.3130 hc        1 MOL      0.052198
     71 H31        -4.3520    4.3330    2.3320 hc        1 MOL      0.052198
     72 N7         -8.1480    2.2290    1.3660 n         1 MOL     -0.421655
     73 C23        -9.3610    1.6980    0.6540 c3        1 MOL     -0.128481
     74 C24        -9.0200    0.7290   -0.4850 c         1 MOL      0.497968
     75 O13        -9.9410    0.2910   -1.1470 o         1 MOL     -0.539309
     76 H32        -7.9890    1.8790    2.3070 hn        1 MOL      0.300569
     77 H33        -9.8390    2.5700    0.2160 h1        1 MOL      0.119781
     78 H34       -10.0850    1.3310    1.3840 h1        1 MOL      0.119781
     79 N8         -7.7400    0.4460   -0.6600 n         1 MOL     -0.196845
     80 C25        -7.2510   -0.6190   -1.5820 c3        1 MOL     -0.272515
     81 C26        -5.9320   -1.1480   -1.0000 c         1 MOL      0.737106
     82 O14        -5.1080   -0.3900   -0.5120 o         1 MOL     -0.563235
     83 C27        -7.0610   -0.0560   -2.9910 c3        1 MOL      0.340063
     84 C28        -6.8390   -1.1520   -3.9930 c3        1 MOL     -0.251453
     85 O15        -5.9770    0.8970   -3.1320 oh        1 MOL     -0.582495
     86 H35        -7.0520    0.6760    0.0330 hn        1 MOL      0.105757
     87 H36        -7.9900   -1.4080   -1.7340 h1        1 MOL      0.106173
     88 H37        -7.9600    0.4630   -3.3270 h1        1 MOL      0.066052
     89 H38        -6.1830    1.6950   -2.6300 ho        1 MOL      0.354108
     90 H39        -7.1750   -0.6680   -4.9140 hc        1 MOL      0.066743
     91 H40        -5.8160   -1.5260   -4.0100 hc        1 MOL      0.066743
     92 H41        -7.4920   -2.0190   -3.8760 hc        1 MOL      0.066743
     93 N9         -5.7260   -2.4360   -1.0730 n         1 MOL     -0.511367
     94 C29        -4.5320   -3.1030   -0.5900 c3        1 MOL      0.014623
     95 C30        -3.8670   -3.8430   -1.7960 c         1 MOL      0.490732
     96 O16        -4.3810   -4.9440   -2.1530 o         1 MOL     -0.507665
     97 C31        -4.7190   -4.0520    0.5740 c3        1 MOL     -0.009825
     98 C32        -5.4150   -3.2230    1.7170 c3        1 MOL      0.373631
     99 C33        -3.3030   -4.4920    1.1060 c3        1 MOL      0.079335
    100 C34        -5.6090   -3.9530    3.0230 c3        1 MOL     -0.383575
    101 H42        -6.4260   -2.9800   -1.5610 hn        1 MOL      0.310496
    102 H43        -3.7980   -2.3610   -0.2870 h1        1 MOL     -0.030977
    103 H44        -5.3860   -4.8840    0.3380 hc        1 MOL      0.025823
    104 H45        -6.4260   -3.0200    1.3580 hc        1 MOL     -0.070015
    105 H46        -4.9030   -2.2630    1.7390 hc        1 MOL     -0.070015
    106 H47        -3.5200   -5.1300    1.9590 hc        1 MOL     -0.031109
    107 H48        -2.6880   -5.0930    0.4370 hc        1 MOL     -0.031109
    108 H49        -2.6850   -3.6330    1.3790 hc        1 MOL     -0.031109
    109 H50        -6.0910   -4.9190    2.8930 hc        1 MOL      0.080956
    110 H51        -4.6530   -3.9840    3.5440 hc        1 MOL      0.080956
    111 H52        -6.2820   -3.3460    3.6360 hc        1 MOL      0.080956
    112 N10        -2.6810   -3.3810   -2.2410 n         1 MOL     -0.275531
    113 C35        -1.7920   -4.1670   -3.0540 c3        1 MOL      0.006942
    114 C36        -0.3430   -4.1040   -2.6330 c         1 MOL      0.385916
    115 O17         0.4220   -4.9990   -2.9880 o         1 MOL     -0.508699
    116 C37        -1.8540   -3.8640   -4.5440 c3        1 MOL      0.243455
    117 C38        -1.5530   -2.4360   -4.9490 c3        1 MOL     -0.238435
    118 O18        -3.1190   -4.1660   -5.0540 oh        1 MOL     -0.626175
    119 H53        -2.4730   -2.4080   -2.0640 hn        1 MOL      0.284560
    120 H54        -2.0410   -5.2260   -2.9020 h1        1 MOL      0.116187
    121 H55        -1.1880   -4.5810   -5.0290 h1        1 MOL      0.047726
    122 H56        -3.0460   -4.0840   -6.0070 ho        1 MOL      0.403837
    123 H57        -2.3750   -1.8040   -4.6180 hc        1 MOL      0.065813
    124 H58        -0.6130   -2.0130   -4.6090 hc        1 MOL      0.065813
    125 H59        -1.5880   -2.3890   -6.0440 hc        1 MOL      0.065813
    126 N11         0.0140   -3.0170   -1.8730 n         1 MOL     -0.293096
    127 C39         1.3150   -2.9430   -1.1530 c3        1 MOL      0.255117
    128 C40         2.5110   -2.6340   -2.0860 c         1 MOL      0.263732
    129 O19         2.6300   -3.1590   -3.1940 o         1 MOL     -0.467362
    130 C41         1.5690   -4.1520   -0.2460 c3        1 MOL      0.491315
    131 C42         0.5210   -4.4830    0.7720 c3        1 MOL     -0.429999
    132 O20         2.7530   -4.0300    0.5260 oh        1 MOL     -0.727562
    133 H60        -0.7720   -2.4190   -1.7010 hn        1 MOL      0.121835
    134 H61         1.3330   -2.1130   -0.4380 h1        1 MOL     -0.158923
    135 H62         1.8160   -5.0490   -0.8050 h1        1 MOL      0.006098
    136 H63         2.6460   -4.4570    1.3780 ho        1 MOL      0.415255
    137 H64         0.2400   -3.6360    1.4000 hc        1 MOL      0.089552
    138 H65        -0.3930   -4.7380    0.2280 hc        1 MOL      0.089552
    139 H66         0.8290   -5.2990    1.4240 hc        1 MOL      0.089552
    140 N12         3.4650   -1.7980   -1.6500 n         1 MOL     -0.072003
    141 C43         4.5650   -1.2580   -2.5360 c3        1 MOL     -0.023054
    142 C44         5.1130    0.1900   -2.3650 c         1 MOL      0.622602
    143 O21         5.6100    0.7940   -3.2830 o         1 MOL     -0.576055
    144 C45         5.7240   -2.1840   -2.7280 c3        1 MOL     -0.579140
    145 C46         6.8060   -2.2060   -1.6820 c3        1 MOL      0.212819
    146 C47         7.7400   -3.4160   -1.9940 c3        1 MOL      0.083283
    147 C48         8.8200   -3.6500   -0.8560 c3        1 MOL     -0.181485
    148 N13         8.2530   -4.1630    0.4060 n4        1 MOL     -0.118129
    149 H67         3.4150   -1.4430   -0.7040 hn        1 MOL      0.158391
    150 H68         4.0600   -1.2040   -3.5030 h1        1 MOL      0.104910
    151 H69         6.1160   -1.8890   -3.7060 hc        1 MOL      0.165967
    152 H70         5.3480   -3.2170   -2.7070 hc        1 MOL      0.165967
    153 H71         6.4090   -2.2140   -0.6780 hc        1 MOL     -0.021317
    154 H72         7.3910   -1.2800   -1.7590 hc        1 MOL     -0.021317
    155 H73         8.2530   -3.3010   -2.9520 hc        1 MOL      0.006842
    156 H74         7.1710   -4.3460   -2.0740 hc        1 MOL      0.006842
    157 H75         9.3670   -2.7210   -0.6980 hx        1 MOL      0.110374
    158 H76         9.4930   -4.4480   -1.1820 hx        1 MOL      0.110374
    159 H77         8.9330   -4.4840    1.0910 hn        1 MOL      0.247632
    160 H78         7.7080   -3.4360    0.8530 hn        1 MOL      0.247632
    161 H79         7.6030   -4.9360    0.3240 hn        1 MOL      0.247632
    162 N14         4.7850    0.7520   -1.2080 n         1 MOL      0.200016
    163 C49         5.1680    2.1930   -0.8910 c3        1 MOL     -0.577631
    164 C50         6.5440    2.2170   -0.1820 c         1 MOL      0.628315
    165 O22         6.8890    1.4260    0.6440 o         1 MOL     -0.496403
    166 C51         4.0510    2.8120    0.0240 c3        1 MOL      0.411862
    167 C52         4.3130    4.2480    0.3880 c3        1 MOL     -0.724471
    168 C53         4.4630    5.1600   -0.7710 c         1 MOL      0.869383
    169 O23         3.4550    5.5400   -1.3870 o         1 MOL     -0.756786
    170 O24         5.5960    5.6760   -1.0450 o         1 MOL     -0.756786
    171 H80         4.4340    0.1710   -0.4580 hn        1 MOL     -0.196144
    172 H81         5.2670    2.7340   -1.8290 h1        1 MOL      0.162222
    173 H82         3.9300    2.2000    0.9180 hc        1 MOL     -0.080204
    174 H83         3.1250    2.6200   -0.5220 hc        1 MOL     -0.080204
    175 H84         5.1390    4.2480    1.1080 hc        1 MOL      0.202001
    176 H85         3.4810    4.6680    0.9720 hc        1 MOL      0.202001
    177 N15         7.3110    3.3560   -0.4250 n         1 MOL     -0.503588
    178 C54         8.7190    3.5160    0.0190 c3        1 MOL     -0.081788
    179 H86         9.0250    4.5540   -0.1110 h1        1 MOL      0.068583
    180 H87         8.8020    3.2430    1.0710 h1        1 MOL      0.068583
    181 H88         9.3640    2.8710   -0.5770 h1        1 MOL      0.068583
    182 H89         6.8550    4.1920   -0.7600 hn        1 MOL      0.448987
    183 Ca1         1.0960    5.2400   -2.4230 Ca        1 MOL      1.636986
    184 O25        -0.3630    5.2130   -4.5020 oh        1 MOL     -0.778957
    185 H90        -0.8870    5.9540   -4.8050 ho        1 MOL      0.395359
    186 H91        -0.7140    4.4640   -4.9900 ho        1 MOL      0.395359
    187 O26         2.5500    6.6120   -4.5060 oh        1 MOL     -0.778957
    188 H92         2.7010    7.3120   -3.8760 ho        1 MOL      0.395359
    189 H93         2.1360    7.0450   -5.2570 ho        1 MOL      0.395359
    190 O27         2.5740    3.7270   -3.9020 oh        1 MOL     -0.778957
    191 H94         3.0100    3.6060   -4.7400 ho        1 MOL      0.395359
    192 H95         2.5620    2.8530   -3.5050 ho        1 MOL      0.395359
@<TRIPOS>BOND
     1    1    2 1   
     2    1    4 1   
     3    1    5 1   
     4    1    6 1   
     5    2    3 2   
     6    2    7 1   
     7    7    8 1   
     8    7   15 1   
     9    8    9 1   
    10    8   11 1   
    11    8   16 1   
    12    9   10 2   
    13    9   19 1   
    14   11   12 1   
    15   11   17 1   
    16   11   18 1   
    17   12   13 1   
    18   12   14 1   
    19   19   20 1   
    20   19   28 1   
    21   20   21 1   
    22   20   23 1   
    23   20   29 1   
    24   21   22 2   
    25   21   41 1   
    26   23   24 1   
    27   23   30 1   
    28   23   31 1   
    29   24   25 1   
    30   24   32 1   
    31   24   33 1   
    32   25   26 1   
    33   25   34 1   
    34   25   35 1   
    35   26   27 1   
    36   26   36 1   
    37   26   37 1   
    38   27   38 1   
    39   27   39 1   
    40   27   40 1   
    41   41   42 1   
    42   41   49 1   
    43   42   43 1   
    44   42   45 1   
    45   42   50 1   
    46   43   44 2   
    47   43   53 1   
    48   45   46 1   
    49   45   51 1   
    50   45   52 1   
    51   46   47 1   
    52   46   48 1   
    53   53   54 1   
    54   53   57 1   
    55   54   55 1   
    56   54   58 1   
    57   54   59 1   
    58   55   56 2   
    59   55   60 1   
    60   60   61 1   
    61   60   68 1   
    62   61   62 1   
    63   61   64 1   
    64   61   69 1   
    65   62   63 2   
    66   62   72 1   
    67   64   65 1   
    68   64   70 1   
    69   64   71 1   
    70   65   66 1   
    71   65   67 1   
    72   72   73 1   
    73   72   76 1   
    74   73   74 1   
    75   73   77 1   
    76   73   78 1   
    77   74   75 2   
    78   74   79 1   
    79   79   80 1   
    80   79   86 1   
    81   80   81 1   
    82   80   83 1   
    83   80   87 1   
    84   81   82 2   
    85   81   93 1   
    86   83   84 1   
    87   83   85 1   
    88   83   88 1   
    89   84   90 1   
    90   84   91 1   
    91   84   92 1   
    92   85   89 1   
    93   93   94 1   
    94   93  101 1   
    95   94   95 1   
    96   94   97 1   
    97   94  102 1   
    98   95   96 2   
    99   95  112 1   
   100   97   98 1   
   101   97   99 1   
   102   97  103 1   
   103   98  100 1   
   104   98  104 1   
   105   98  105 1   
   106   99  106 1   
   107   99  107 1   
   108   99  108 1   
   109  100  109 1   
   110  100  110 1   
   111  100  111 1   
   112  112  113 1   
   113  112  119 1   
   114  113  114 1   
   115  113  116 1   
   116  113  120 1   
   117  114  115 2   
   118  114  126 1   
   119  116  117 1   
   120  116  118 1   
   121  116  121 1   
   122  117  123 1   
   123  117  124 1   
   124  117  125 1   
   125  118  122 1   
   126  126  127 1   
   127  126  133 1   
   128  127  128 1   
   129  127  130 1   
   130  127  134 1   
   131  128  129 2   
   132  128  140 1   
   133  130  131 1   
   134  130  132 1   
   135  130  135 1   
   136  131  137 1   
   137  131  138 1   
   138  131  139 1   
   139  132  136 1   
   140  140  141 1   
   141  140  149 1   
   142  141  142 1   
   143  141  144 1   
   144  141  150 1   
   145  142  143 2   
   146  142  162 1   
   147  144  145 1   
   148  144  151 1   
   149  144  152 1   
   150  145  146 1   
   151  145  153 1   
   152  145  154 1   
   153  146  147 1   
   154  146  155 1   
   155  146  156 1   
   156  147  148 1   
   157  147  157 1   
   158  147  158 1   
   159  148  159 1   
   160  148  160 1   
   161  148  161 1   
   162  162  163 1   
   163  162  171 1   
   164  163  164 1   
   165  163  166 1   
   166  163  172 1   
   167  164  165 2   
   168  164  177 1   
   169  166  167 1   
   170  166  173 1   
   171  166  174 1   
   172  167  168 1   
   173  167  175 1   
   174  167  176 1   
   175  168  169 1   
   176  168  170 1   
   177  177  178 1   
   178  177  182 1   
   179  178  179 1   
   180  178  180 1   
   181  178  181 1   
   182  184  185 1   
   183  184  186 1   
   184  187  188 1   
   185  187  189 1   
   186  190  191 1   
   187  190  192 1   
@<TRIPOS>SUBSTRUCTURE
     1 MOL         1 TEMP              0 ****  ****    0 ROOT
