@<TRIPOS>MOLECULE
MOL
  175   173     1     0     0
SMALL
resp


@<TRIPOS>ATOM
      1 C1         -7.3070    7.9840    1.6080 c3        1 MOL     -0.461865
      2 C2         -7.9660    7.1130    0.5500 c         1 MOL      0.710008
      3 O1         -7.9680    7.3990   -0.6400 o         1 MOL     -0.605791
      4 H1         -6.8720    7.3490    2.3810 hc        1 MOL      0.116609
      5 H2         -6.5220    8.5840    1.1490 hc        1 MOL      0.116609
      6 H3         -8.0530    8.6400    2.0550 hc        1 MOL      0.116609
      7 N1         -8.4810    5.9480    0.8810 n         1 MOL     -0.513050
      8 C3         -9.1000    4.9140    0.0330 c3        1 MOL      0.133242
      9 C4         -8.1460    3.8030   -0.5110 c         1 MOL      0.508453
     10 O2         -8.4920    2.6230   -0.7660 o         1 MOL     -0.505846
     11 C5        -10.3530    4.2660    0.8140 c3        1 MOL     -0.176717
     12 C6        -11.3050    3.3130    0.0900 c         1 MOL      0.729819
     13 O3        -11.4880    3.5220   -1.1410 o         1 MOL     -0.735943
     14 O4        -11.9400    2.5180    0.7930 o         1 MOL     -0.735943
     15 H4         -8.4450    5.7340    1.8700 hn        1 MOL      0.252438
     16 H5         -9.5180    5.3920   -0.8520 h1        1 MOL      0.058209
     17 H6        -10.9560    5.0520    1.2690 hc        1 MOL      0.016651
     18 H7        -10.0650    3.6330    1.6550 hc        1 MOL      0.016651
     19 N2         -6.8780    4.2550   -0.5960 n         1 MOL     -0.536384
     20 C7         -5.7340    3.4370   -0.9870 c3        1 MOL      0.249373
     21 C8         -5.0600    2.6630    0.0700 c         1 MOL      0.512445
     22 O5         -4.5690    3.2360    1.0750 o         1 MOL     -0.568649
     23 C9         -4.7010    4.3850   -1.7620 c3        1 MOL     -0.368899
     24 H8         -6.6630    5.2080   -0.3880 hn        1 MOL      0.316715
     25 H9         -6.0860    2.7050   -1.7080 h1        1 MOL      0.060031
     26 H10        -3.9790    3.7570   -2.2830 hc        1 MOL      0.101757
     27 H11        -5.3300    4.8900   -2.4960 hc        1 MOL      0.101757
     28 H12        -4.2950    5.1870   -1.1540 hc        1 MOL      0.101757
     29 N3         -4.9990    1.3180   -0.0490 n         1 MOL     -0.393993
     30 C10        -5.4960    0.4060   -1.0740 c3        1 MOL      0.002989
     31 C11        -5.5520   -1.0440   -0.4740 c         1 MOL      0.512228
     32 O6         -4.7910   -1.3610    0.4760 o         1 MOL     -0.486324
     33 C12        -4.5500    0.3950   -2.2910 c3        1 MOL     -0.103790
     34 C13        -3.1110   -0.1000   -2.0180 c         1 MOL      0.682251
     35 O7         -2.3230    0.6030   -1.3380 o         1 MOL     -0.722475
     36 O8         -2.7790   -1.2440   -2.3500 o         1 MOL     -0.722475
     37 H13        -4.4300    0.9420    0.7010 hn        1 MOL      0.252226
     38 H14        -6.4910    0.7120   -1.4090 h1        1 MOL      0.068791
     39 H15        -4.5120    1.4000   -2.7220 hc        1 MOL      0.014161
     40 H16        -5.0800   -0.2310   -3.0080 hc        1 MOL      0.014161
     41 N4         -6.4800   -1.9320   -0.9630 n         1 MOL     -0.436992
     42 C14        -6.7560   -3.1750   -0.3740 c3        1 MOL      0.094904
     43 C15        -6.6050   -4.2550   -1.4260 c         1 MOL      0.464576
     44 O9         -7.6150   -4.6480   -2.0230 o         1 MOL     -0.544367
     45 H17        -7.0540   -1.6600   -1.7410 hn        1 MOL      0.326254
     46 H18        -7.8100   -3.2390   -0.1140 h1        1 MOL      0.049855
     47 H19        -6.2580   -3.3660    0.5800 h1        1 MOL      0.049855
     48 N5         -5.4560   -4.9380   -1.5340 n         1 MOL     -0.463594
     49 C16        -4.1090   -4.5280   -1.0930 c3        1 MOL      0.349735
     50 C17        -3.8530   -5.1240    0.2680 c         1 MOL      0.291135
     51 O10        -3.8540   -6.3580    0.4520 o         1 MOL     -0.520287
     52 C18        -3.1440   -4.9570   -2.2260 c3        1 MOL     -0.334998
     53 C19        -1.7390   -4.2260   -2.0270 c         1 MOL      0.518003
     54 N6         -0.8340   -4.4310   -2.9410 n         1 MOL     -0.585398
     55 O11        -1.4060   -3.6980   -0.9680 o         1 MOL     -0.522228
     56 H20        -5.4730   -5.8080   -2.0350 hn        1 MOL      0.287789
     57 H21        -4.1330   -3.4420   -1.0090 h1        1 MOL     -0.000437
     58 H22        -3.5090   -4.6050   -3.1870 hc        1 MOL      0.099924
     59 H23        -3.0040   -6.0310   -2.1130 hc        1 MOL      0.099924
     60 H24        -1.1350   -5.1580   -3.5770 hn        1 MOL      0.306152
     61 H25         0.0520   -3.9610   -2.9980 hn        1 MOL      0.306152
     62 N7         -3.7920   -4.3250    1.3600 n         1 MOL     -0.089494
     63 C20        -3.4670   -4.6630    2.7040 c3        1 MOL     -0.353970
     64 C21        -1.9680   -4.8890    3.0990 c         1 MOL      0.589529
     65 O12        -1.5760   -4.9880    4.2460 o         1 MOL     -0.553720
     66 H26        -3.8830   -3.3590    1.1030 hn        1 MOL      0.181159
     67 H27        -3.9770   -5.5610    3.0520 h1        1 MOL      0.130485
     68 H28        -3.9000   -3.8640    3.3030 h1        1 MOL      0.130485
     69 N8         -1.2330   -4.8950    1.9870 n         1 MOL     -0.319190
     70 C22         0.2580   -4.9320    2.0350 c3        1 MOL     -0.019327
     71 C23         0.9370   -3.5900    1.7470 c         1 MOL      0.528753
     72 O13         0.4790   -2.6900    1.0010 o         1 MOL     -0.543908
     73 C24         0.9660   -6.0710    1.3180 c3        1 MOL      0.378801
     74 C25         0.4870   -7.4960    1.9240 c3        1 MOL     -0.235948
     75 O14         0.7870   -6.1280   -0.1090 oh        1 MOL     -0.706480
     76 H29        -1.6540   -4.7430    1.0830 hn        1 MOL      0.314945
     77 H30         0.4380   -5.0440    3.1080 h1        1 MOL      0.027955
     78 H31         2.0460   -6.0320    1.5030 h1        1 MOL     -0.017617
     79 H32         1.1490   -5.3840   -0.5810 ho        1 MOL      0.528897
     80 H33        -0.5930   -7.6550    1.8090 hc        1 MOL      0.054633
     81 H34         1.0330   -8.2920    1.4270 hc        1 MOL      0.054633
     82 H35         0.7580   -7.5680    2.9760 hc        1 MOL      0.054633
     83 N9          2.1270   -3.4080    2.4040 n         1 MOL     -0.404291
     84 C26         3.0360   -2.2990    2.0360 c3        1 MOL     -0.010328
     85 C27         3.9800   -2.8390    0.9390 c         1 MOL      0.149725
     86 O15         4.6540   -3.8710    1.0250 o         1 MOL     -0.505964
     87 C28         3.8060   -1.8650    3.3020 c3        1 MOL      0.334432
     88 C29         4.6410   -0.5600    3.0170 c3        1 MOL      0.143157
     89 C30         2.9190   -1.5680    4.4670 c3        1 MOL     -0.449932
     90 C31         5.6340   -0.1080    4.0540 c3        1 MOL     -0.351195
     91 H36         2.3980   -4.0440    3.1430 hn        1 MOL      0.278811
     92 H37         2.4570   -1.4660    1.6440 h1        1 MOL      0.066619
     93 H38         4.4700   -2.6480    3.6650 hc        1 MOL     -0.043046
     94 H39         3.9410    0.2840    3.0140 hc        1 MOL     -0.042799
     95 H40         5.0430   -0.6490    2.0070 hc        1 MOL     -0.042799
     96 H41         3.5290   -1.1090    5.2510 hc        1 MOL      0.099540
     97 H42         2.1720   -0.8290    4.1950 hc        1 MOL      0.099540
     98 H43         2.4700   -2.4830    4.8310 hc        1 MOL      0.099540
     99 H44         6.2170   -0.8830    4.5390 hc        1 MOL      0.075412
    100 H45         6.4000    0.4940    3.5680 hc        1 MOL      0.075412
    101 H46         5.1120    0.3790    4.8820 hc        1 MOL      0.075412
    102 N10         3.8810   -2.1310   -0.2260 n         1 MOL      0.089409
    103 C32         4.4860   -2.5390   -1.4910 c3        1 MOL      0.235449
    104 C33         5.8080   -1.8100   -1.7630 c         1 MOL      0.416195
    105 O16         6.3860   -1.9580   -2.8600 o         1 MOL     -0.537590
    106 C34         3.4980   -2.5010   -2.6340 c3        1 MOL     -0.424440
    107 C35         2.0810   -3.0730   -2.3870 c         1 MOL      1.024889
    108 O17         1.1490   -2.3010   -2.7510 o         1 MOL     -0.829457
    109 O18         1.8630   -4.1270   -1.7730 o         1 MOL     -0.829457
    110 H47         3.2450   -1.3500   -0.2530 hn        1 MOL      0.030880
    111 H48         4.7760   -3.5840   -1.3610 h1        1 MOL      0.031791
    112 H49         3.8830   -3.0070   -3.5210 hc        1 MOL      0.080209
    113 H50         3.4120   -1.4280   -2.8310 hc        1 MOL      0.080209
    114 N11         6.2140   -0.8360   -0.9250 n         1 MOL     -0.482069
    115 C36         7.0210    0.4320   -1.2640 c3        1 MOL      0.388780
    116 C37         6.5350    1.6730   -0.5400 c         1 MOL      0.374124
    117 O19         6.2660    1.5850    0.6790 o         1 MOL     -0.488904
    118 C38         8.5200    0.1130   -0.8860 c3        1 MOL     -0.309315
    119 C39         9.5580    1.2210   -0.9890 ca        1 MOL      0.138838
    120 C40         9.7190    2.2050    0.0240 ca        1 MOL     -0.169372
    121 C41        10.2660    1.2300   -2.1650 ca        1 MOL     -0.169372
    122 C42        10.7450    3.1290   -0.1010 ca        1 MOL     -0.109109
    123 C43        11.2510    2.2690   -2.3120 ca        1 MOL     -0.109109
    124 C44        11.5160    3.1890   -1.2700 ca        1 MOL     -0.133005
    125 H51         5.6990   -0.7370   -0.0580 hn        1 MOL      0.195670
    126 H52         6.9580    0.6410   -2.3310 h1        1 MOL     -0.003090
    127 H53         8.9050   -0.7210   -1.4720 hc        1 MOL      0.115397
    128 H54         8.5150   -0.2160    0.1520 hc        1 MOL      0.115397
    129 H55         9.0060    2.1240    0.8350 ha        1 MOL      0.129215
    130 H56         9.8890    0.6010   -2.9540 ha        1 MOL      0.129215
    131 H57        10.8120    3.8320    0.7220 ha        1 MOL      0.103737
    132 H58        11.9300    2.3610   -3.1460 ha        1 MOL      0.103737
    133 H59        12.2660    3.9550   -1.3380 ha        1 MOL      0.115079
    134 N12         6.5580    2.8170   -1.2120 n         1 MOL     -0.344287
    135 C45         6.4920    4.1240   -0.5500 c3        1 MOL     -0.013443
    136 C46         5.2290    4.6010    0.2170 c         1 MOL      0.314421
    137 O20         5.2810    5.7070    0.8590 o         1 MOL     -0.520184
    138 C47         6.7400    5.1280   -1.6860 c3        1 MOL      0.047342
    139 C48         7.7040    4.4830   -2.6420 c3        1 MOL     -0.179538
    140 C49         7.0980    3.0970   -2.5730 c3        1 MOL      0.089135
    141 H60         7.2670    4.2190    0.2050 h1        1 MOL      0.121976
    142 H61         5.7700    5.3680   -2.1110 hc        1 MOL      0.037782
    143 H62         7.1550    6.0850   -1.3610 hc        1 MOL      0.037782
    144 H63         7.6190    4.7830   -3.6880 hc        1 MOL      0.067658
    145 H64         8.7110    4.4210   -2.2430 hc        1 MOL      0.067658
    146 H65         6.2730    3.0660   -3.2850 h1        1 MOL      0.047791
    147 H66         7.8110    2.3410   -2.8990 h1        1 MOL      0.047791
    148 N13         4.1530    3.8170    0.2640 n         1 MOL     -0.116259
    149 C50         2.9080    4.1810    0.9220 c3        1 MOL     -0.224600
    150 C51         2.8740    4.4630    2.4540 c         1 MOL      0.523258
    151 O21         1.9750    5.2080    2.9080 o         1 MOL     -0.521226
    152 C52         1.8720    3.1010    0.6670 c3        1 MOL     -0.306375
    153 C53         2.2770    1.6890    1.1830 c3        1 MOL     -0.189823
    154 C54         1.4530    0.6500    0.6030 c         1 MOL      0.747984
    155 O22         1.9550   -0.0550   -0.3130 o         1 MOL     -0.719430
    156 O23         0.2620    0.4620    0.9810 o         1 MOL     -0.719430
    157 H67         4.1430    2.9070   -0.1740 hn        1 MOL      0.241091
    158 H68         2.5480    5.0650    0.3820 h1        1 MOL      0.153869
    159 H69         1.6180    3.1270   -0.3970 hc        1 MOL      0.147144
    160 H70         0.9900    3.3770    1.2470 hc        1 MOL      0.147144
    161 H71         2.0850    1.6110    2.2540 hc        1 MOL      0.096149
    162 H72         3.2690    1.4480    0.7950 hc        1 MOL      0.096149
    163 N14         3.9310    4.0160    3.1650 n         1 MOL     -0.208923
    164 C55         4.1040    4.4970    4.5580 c3        1 MOL     -0.134171
    165 H73         4.7670    3.8200    5.0970 h1        1 MOL      0.076365
    166 H74         4.5390    5.4970    4.5470 h1        1 MOL      0.076365
    167 H75         3.1340    4.5270    5.0560 h1        1 MOL      0.076365
    168 H76         4.6450    3.5270    2.6510 hn        1 MOL      0.229781
    169 Ca1        -0.3420   -1.1730   -0.9250 Ca        1 MOL      1.729158
    170 O24         0.1670    0.5670   -2.9820 oh        1 MOL     -0.856683
    171 H77         0.8290    0.4300   -3.6680 ho        1 MOL      0.410177
    172 H78        -0.3220    1.3300   -3.2800 ho        1 MOL      0.410177
    173 O25        -2.3310   -1.4610    1.2000 oh        1 MOL     -0.856683
    174 H79        -2.1860   -0.7200    1.7870 ho        1 MOL      0.410177
    175 H80        -3.2330   -1.3640    0.9010 ho        1 MOL      0.410177
@<TRIPOS>BOND
     1    1    2 1   
     2    1    4 1   
     3    1    5 1   
     4    1    6 1   
     5    2    3 2   
     6    2    7 1   
     7    7    8 1   
     8    7   15 1   
     9    8    9 1   
    10    8   11 1   
    11    8   16 1   
    12    9   10 2   
    13    9   19 1   
    14   11   12 1   
    15   11   17 1   
    16   11   18 1   
    17   12   13 1   
    18   12   14 1   
    19   19   20 1   
    20   19   24 1   
    21   20   21 1   
    22   20   23 1   
    23   20   25 1   
    24   21   22 2   
    25   21   29 1   
    26   23   26 1   
    27   23   27 1   
    28   23   28 1   
    29   29   30 1   
    30   29   37 1   
    31   30   31 1   
    32   30   33 1   
    33   30   38 1   
    34   31   32 2   
    35   31   41 1   
    36   33   34 1   
    37   33   39 1   
    38   33   40 1   
    39   34   35 1   
    40   34   36 1   
    41   41   42 1   
    42   41   45 1   
    43   42   43 1   
    44   42   46 1   
    45   42   47 1   
    46   43   44 2   
    47   43   48 1   
    48   48   49 1   
    49   48   56 1   
    50   49   50 1   
    51   49   52 1   
    52   49   57 1   
    53   50   51 2   
    54   50   62 1   
    55   52   53 1   
    56   52   58 1   
    57   52   59 1   
    58   53   54 1   
    59   53   55 2   
    60   54   60 1   
    61   54   61 1   
    62   62   63 1   
    63   62   66 1   
    64   63   64 1   
    65   63   67 1   
    66   63   68 1   
    67   64   65 2   
    68   64   69 1   
    69   69   70 1   
    70   69   76 1   
    71   70   71 1   
    72   70   73 1   
    73   70   77 1   
    74   71   72 2   
    75   71   83 1   
    76   73   74 1   
    77   73   75 1   
    78   73   78 1   
    79   74   80 1   
    80   74   81 1   
    81   74   82 1   
    82   75   79 1   
    83   83   84 1   
    84   83   91 1   
    85   84   85 1   
    86   84   87 1   
    87   84   92 1   
    88   85   86 2   
    89   85  102 1   
    90   87   88 1   
    91   87   89 1   
    92   87   93 1   
    93   88   90 1   
    94   88   94 1   
    95   88   95 1   
    96   89   96 1   
    97   89   97 1   
    98   89   98 1   
    99   90   99 1   
   100   90  100 1   
   101   90  101 1   
   102  102  103 1   
   103  102  110 1   
   104  103  104 1   
   105  103  106 1   
   106  103  111 1   
   107  104  105 2   
   108  104  114 1   
   109  106  107 1   
   110  106  112 1   
   111  106  113 1   
   112  107  108 1   
   113  107  109 1   
   114  114  115 1   
   115  114  125 1   
   116  115  116 1   
   117  115  118 1   
   118  115  126 1   
   119  116  117 2   
   120  116  134 1   
   121  118  119 1   
   122  118  127 1   
   123  118  128 1   
   124  119  120 ar  
   125  119  121 ar  
   126  120  122 ar  
   127  120  129 1   
   128  121  123 ar  
   129  121  130 1   
   130  122  124 ar  
   131  122  131 1   
   132  123  124 ar  
   133  123  132 1   
   134  124  133 1   
   135  134  135 1   
   136  134  140 1   
   137  135  136 1   
   138  135  138 1   
   139  135  141 1   
   140  136  137 2   
   141  136  148 1   
   142  138  139 1   
   143  138  142 1   
   144  138  143 1   
   145  139  140 1   
   146  139  144 1   
   147  139  145 1   
   148  140  146 1   
   149  140  147 1   
   150  148  149 1   
   151  148  157 1   
   152  149  150 1   
   153  149  152 1   
   154  149  158 1   
   155  150  151 2   
   156  150  163 1   
   157  152  153 1   
   158  152  159 1   
   159  152  160 1   
   160  153  154 1   
   161  153  161 1   
   162  153  162 1   
   163  154  155 1   
   164  154  156 1   
   165  163  164 1   
   166  163  168 1   
   167  164  165 1   
   168  164  166 1   
   169  164  167 1   
   170  170  171 1   
   171  170  172 1   
   172  173  174 1   
   173  173  175 1   
@<TRIPOS>SUBSTRUCTURE
     1 MOL         1 TEMP              0 ****  ****    0 ROOT
