@<TRIPOS>MOLECULE
MOL
  192   187     1     0     0
SMALL
resp


@<TRIPOS>ATOM
      1 C1         11.7760    5.6250   -2.7930 c3        1 MOL     -0.385150
      2 C2         11.5390    4.3410   -1.9360 c         1 MOL      0.619285
      3 O1         12.5450    3.7850   -1.5770 o         1 MOL     -0.556709
      4 H1         10.9010    5.8130   -3.4150 hc        1 MOL      0.106964
      5 H2         11.9430    6.4770   -2.1340 hc        1 MOL      0.106964
      6 H3         12.6490    5.4800   -3.4300 hc        1 MOL      0.106964
      7 N1         10.3900    3.9390   -1.4510 n         1 MOL     -0.156398
      8 C3         10.2310    2.9880   -0.3240 c3        1 MOL     -0.519274
      9 C4          8.9800    2.0870   -0.3520 c         1 MOL      0.568171
     10 O2          7.9100    2.5160   -0.8800 o         1 MOL     -0.562683
     11 C5         10.4700    3.6620    1.0590 c3        1 MOL      0.101608
     12 C6          9.6930    4.9140    1.3890 c         1 MOL      0.571279
     13 O3          8.6120    5.1740    0.7950 o         1 MOL     -0.671183
     14 O4         10.1840    5.6990    2.2390 o         1 MOL     -0.671183
     15 H4          9.5340    4.4250   -1.6810 hn        1 MOL      0.117031
     16 H5         11.0450    2.2920   -0.5320 h1        1 MOL      0.135518
     17 H6         11.5030    3.9740    1.2040 hc        1 MOL      0.058785
     18 H7         10.3370    2.9260    1.8470 hc        1 MOL      0.058785
     19 N2          9.1880    0.7920   -0.0160 n         1 MOL     -0.253330
     20 C7          8.1510   -0.2250   -0.2370 c3        1 MOL     -0.049504
     21 C8          7.1090   -0.2030    0.9060 c         1 MOL      0.476629
     22 O5          7.4550   -0.5250    2.0530 o         1 MOL     -0.481923
     23 C9          8.8220   -1.5860   -0.4870 c3        1 MOL     -0.462793
     24 C10         7.7900   -2.7830   -0.7410 c3        1 MOL      0.328702
     25 C11         8.2820   -4.0270   -1.5790 c3        1 MOL     -0.265023
     26 C12         7.0090   -4.8520   -1.8840 c3        1 MOL      0.209256
     27 N3          7.2390   -6.2080   -2.4160 n4        1 MOL     -0.367732
     28 H8         10.0440    0.5020    0.4350 hn        1 MOL      0.307662
     29 H9          7.5370   -0.0090   -1.1080 h1        1 MOL      0.100961
     30 H10         9.4350   -1.8110    0.3800 hc        1 MOL      0.145109
     31 H11         9.4740   -1.4590   -1.3460 hc        1 MOL      0.145109
     32 H12         6.9520   -2.3940   -1.3190 hc        1 MOL      0.001302
     33 H13         7.3230   -3.1870    0.1550 hc        1 MOL      0.001302
     34 H14         8.8620   -4.7660   -1.0220 hc        1 MOL      0.057788
     35 H15         8.6770   -3.8130   -2.5770 hc        1 MOL      0.057788
     36 H16         6.3370   -4.2990   -2.5460 hx        1 MOL      0.051957
     37 H17         6.4650   -4.8800   -0.9350 hx        1 MOL      0.051957
     38 H18         8.0510   -6.1450   -3.0230 hn        1 MOL      0.284484
     39 H19         7.4940   -6.8320   -1.6640 hn        1 MOL      0.284484
     40 H20         6.5320   -6.6040   -3.0190 hn        1 MOL      0.284484
     41 N4          5.8000    0.1600    0.6240 n         1 MOL     -0.501600
     42 C13         4.6790    0.0520    1.6280 c3        1 MOL      0.066917
     43 C14         3.2900    0.0720    0.9760 c         1 MOL      0.420639
     44 O6          3.1390    0.7510   -0.0180 o         1 MOL     -0.527624
     45 C15         4.7210    1.2130    2.5900 c3        1 MOL     -0.106827
     46 C16         5.1200    2.5060    1.9810 c         1 MOL      0.709612
     47 O7          6.3420    2.9080    2.0040 o         1 MOL     -0.731617
     48 O8          4.2170    3.3380    1.6520 o         1 MOL     -0.731617
     49 H21         5.6710    0.5910   -0.2760 hn        1 MOL      0.248733
     50 H22         4.7600   -0.9080    2.1490 h1        1 MOL      0.110530
     51 H23         5.4330    0.9880    3.3810 hc        1 MOL      0.058622
     52 H24         3.7390    1.2760    3.0750 hc        1 MOL      0.058622
     53 N5          2.2360   -0.6290    1.4550 n         1 MOL     -0.233470
     54 C17         2.2270   -1.3880    2.7240 c3        1 MOL     -0.327777
     55 C18         2.4910   -2.8930    2.5470 c         1 MOL      0.693643
     56 O9          3.3510   -3.2900    1.7240 o         1 MOL     -0.605348
     57 H25         1.3210   -0.4130    1.0790 hn        1 MOL      0.297541
     58 H26         1.1860   -1.4060    3.0440 h1        1 MOL      0.140053
     59 H27         2.9230   -0.9790    3.4620 h1        1 MOL      0.140053
     60 N6          1.8180   -3.6520    3.4060 n         1 MOL     -0.417634
     61 C19         1.9320   -5.1040    3.3020 c3        1 MOL      0.015859
     62 C20         1.0410   -5.5800    2.1470 c         1 MOL      0.441007
     63 O10        -0.1150   -5.1250    2.0170 o         1 MOL     -0.435229
     64 C21         1.6140   -5.7170    4.6330 c3        1 MOL     -0.218911
     65 C22         0.3500   -5.2470    5.3270 c         1 MOL      0.740406
     66 O11         0.2960   -4.1970    5.9470 o         1 MOL     -0.661483
     67 O12        -0.6790   -5.9450    5.2370 o         1 MOL     -0.661483
     68 H28         1.1220   -3.3470    4.0640 hn        1 MOL      0.252188
     69 H29         2.9750   -5.3180    3.0930 h1        1 MOL      0.058470
     70 H30         2.4320   -5.5270    5.3240 hc        1 MOL      0.045899
     71 H31         1.6440   -6.8010    4.5180 hc        1 MOL      0.045899
     72 N7          1.5760   -6.4340    1.2990 n         1 MOL     -0.278140
     73 C23         0.9560   -6.9090    0.0780 c3        1 MOL     -0.311635
     74 C24         0.8220   -5.8940   -1.0670 c         1 MOL      0.450061
     75 O13         0.2520   -6.2250   -2.1470 o         1 MOL     -0.564362
     76 H32         2.5580   -6.6440    1.4210 hn        1 MOL      0.244630
     77 H33        -0.0280   -7.3480    0.2670 h1        1 MOL      0.170286
     78 H34         1.6070   -7.7040   -0.2890 h1        1 MOL      0.170286
     79 N8          1.3730   -4.6870   -0.9810 n         1 MOL     -0.089826
     80 C25         1.1940   -3.6500   -2.0390 c3        1 MOL      0.046252
     81 C26         0.6360   -2.2950   -1.4880 c         1 MOL      0.407961
     82 O14         0.7040   -2.1010   -0.2920 o         1 MOL     -0.439312
     83 C27         2.5110   -3.5770   -2.9200 c3        1 MOL      0.119021
     84 C28         3.7320   -3.0620   -2.1730 c3        1 MOL     -0.212141
     85 O15         2.9020   -4.8460   -3.4870 oh        1 MOL     -0.614574
     86 H35         1.6810   -4.4350   -0.0560 hn        1 MOL      0.104784
     87 H36         0.3740   -3.9470   -2.6870 h1        1 MOL      0.048666
     88 H37         2.2960   -2.8600   -3.7150 h1        1 MOL      0.039781
     89 H38         2.2230   -5.2270   -4.0410 ho        1 MOL      0.410479
     90 H39         3.4710   -2.0680   -1.8140 hc        1 MOL      0.062288
     91 H40         3.8680   -3.7480   -1.3390 hc        1 MOL      0.062288
     92 H41         4.6320   -2.9570   -2.7860 hc        1 MOL      0.062288
     93 N9          0.1780   -1.3370   -2.3290 n         1 MOL     -0.244456
     94 C29        -0.2670    0.0030   -2.0250 c3        1 MOL     -0.001280
     95 C30        -1.6050   -0.0240   -1.2730 c         1 MOL      0.538561
     96 O16        -1.8300    0.8920   -0.4820 o         1 MOL     -0.504573
     97 C31        -0.3660    0.9330   -3.2480 c3        1 MOL      0.021556
     98 C32         0.8940    0.8820   -4.1670 c3        1 MOL     -0.030225
     99 C33        -0.7010    2.4330   -2.8760 c3        1 MOL     -0.259445
    100 C34         2.2400    1.0760   -3.4550 c3        1 MOL     -0.079366
    101 H42         0.1440   -1.6750   -3.2750 hn        1 MOL      0.206572
    102 H43         0.5150    0.4790   -1.4310 h1        1 MOL      0.048614
    103 H44        -1.2390    0.5620   -3.7860 hc        1 MOL      0.019956
    104 H45         0.8440    1.5990   -4.9900 hc        1 MOL      0.011706
    105 H46         0.8380   -0.0890   -4.6670 hc        1 MOL      0.011706
    106 H47         0.1280    2.8280   -2.2740 hc        1 MOL      0.086765
    107 H48        -0.6980    3.0560   -3.7670 hc        1 MOL      0.086765
    108 H49        -1.6370    2.6690   -2.3750 hc        1 MOL      0.086765
    109 H50         2.3650    2.1070   -3.1420 hc        1 MOL      0.021662
    110 H51         2.4070    0.4030   -2.6080 hc        1 MOL      0.021662
    111 H52         3.0550    0.8600   -4.1440 hc        1 MOL      0.021662
    112 N10        -2.4750   -1.0570   -1.4590 n         1 MOL     -0.412679
    113 C35        -3.7190   -1.2210   -0.6520 c3        1 MOL     -0.043929
    114 C36        -4.7990   -1.8110   -1.5110 c         1 MOL      0.588571
    115 O17        -4.4780   -2.5380   -2.4540 o         1 MOL     -0.515458
    116 C37        -3.4060   -2.1640    0.5570 c3        1 MOL      0.339401
    117 C38        -2.9450   -3.5500    0.1120 c3        1 MOL     -0.315387
    118 O18        -2.4930   -1.5830    1.4390 oh        1 MOL     -0.601880
    119 H53        -2.4920   -1.7750   -2.1670 hn        1 MOL      0.222888
    120 H54        -3.9550   -0.2380   -0.2590 h1        1 MOL      0.094047
    121 H55        -4.3520   -2.2910    1.0790 h1        1 MOL     -0.031519
    122 H56        -2.1560   -2.2020    2.0910 ho        1 MOL      0.427479
    123 H57        -3.2140   -4.2550    0.8920 hc        1 MOL      0.089206
    124 H58        -3.4530   -3.9010   -0.7910 hc        1 MOL      0.089206
    125 H59        -1.8550   -3.5750    0.1640 hc        1 MOL      0.089206
    126 N11        -6.0600   -1.6260   -1.1010 n         1 MOL     -0.501860
    127 C39        -7.3440   -1.9430   -1.8150 c3        1 MOL     -0.215326
    128 C40        -8.5020   -0.9450   -1.5430 c         1 MOL      0.807847
    129 O19        -9.3360   -0.7840   -2.4410 o         1 MOL     -0.610552
    130 C41        -7.8010   -3.3500   -1.4140 c3        1 MOL      0.341827
    131 C42        -9.0070   -3.7750   -2.1760 c3        1 MOL     -0.306836
    132 O20        -8.1080   -3.4110   -0.0260 oh        1 MOL     -0.619809
    133 H60        -6.1330   -1.0640   -0.2550 hn        1 MOL      0.265779
    134 H61        -7.1470   -1.7970   -2.8790 h1        1 MOL      0.157811
    135 H62        -7.0180   -4.0820   -1.5770 h1        1 MOL      0.056475
    136 H63        -7.3640   -3.6390    0.5340 ho        1 MOL      0.399997
    137 H64        -9.0950   -4.8650   -2.2230 hc        1 MOL      0.081879
    138 H65        -9.9260   -3.3650   -1.7690 hc        1 MOL      0.081879
    139 H66        -8.9570   -3.4550   -3.2130 hc        1 MOL      0.081879
    140 N12        -8.4880   -0.2270   -0.3880 n         1 MOL     -0.651657
    141 C43        -9.5830    0.6380    0.0530 c3        1 MOL      0.075131
    142 C44        -9.0630    1.7660    0.9700 c         1 MOL      0.499948
    143 O21        -8.3700    1.4060    1.9480 o         1 MOL     -0.490310
    144 C45       -10.6480   -0.1660    0.8000 c3        1 MOL     -0.097707
    145 C46       -12.0130    0.3550    0.4230 c3        1 MOL     -0.072608
    146 C47       -12.3340   -0.0740   -1.0790 c3        1 MOL     -0.139251
    147 C48       -13.8410    0.0030   -1.2620 c3        1 MOL     -0.005978
    148 N13       -14.6890   -0.8590   -0.4370 n4        1 MOL     -0.257977
    149 H67        -7.6920   -0.3490    0.2210 hn        1 MOL      0.347299
    150 H68       -10.1360    1.0560   -0.7940 h1        1 MOL      0.060777
    151 H69       -10.4590   -0.1130    1.8790 hc        1 MOL      0.069700
    152 H70       -10.6630   -1.2280    0.5600 hc        1 MOL      0.069700
    153 H71       -12.0120    1.4360    0.5190 hc        1 MOL      0.045717
    154 H72       -12.5960   -0.0520    1.2480 hc        1 MOL      0.045717
    155 H73       -12.0610   -1.1010   -1.2900 hc        1 MOL      0.113396
    156 H74       -11.7870    0.6050   -1.7270 hc        1 MOL      0.113396
    157 H75       -14.0080   -0.2190   -2.3180 hx        1 MOL      0.081737
    158 H76       -14.1240    1.0420   -1.1270 hx        1 MOL      0.081737
    159 H77       -14.7620   -1.7970   -0.8150 hn        1 MOL      0.268431
    160 H78       -14.3980   -0.8750    0.5260 hn        1 MOL      0.268431
    161 H79       -15.6530   -0.5860   -0.5310 hn        1 MOL      0.268431
    162 N14        -9.3220    2.9920    0.5240 n         1 MOL     -0.440548
    163 C49        -8.9680    4.1910    1.2750 c3        1 MOL      0.133521
    164 C50        -7.4360    4.4810    1.3730 c         1 MOL      0.366187
    165 O22        -6.8900    4.8440    2.4430 o         1 MOL     -0.492055
    166 C51        -9.8350    5.4360    0.7250 c3        1 MOL      0.040146
    167 C52       -11.3560    5.2450    0.8870 c3        1 MOL     -0.388594
    168 C53       -12.0110    6.6600    0.8540 c         1 MOL      0.750204
    169 O23       -12.1090    7.2970   -0.2360 o         1 MOL     -0.658152
    170 O24       -12.5270    7.1570    1.8600 o         1 MOL     -0.658152
    171 H80        -9.9770    3.0910   -0.2240 hn        1 MOL      0.290324
    172 H81        -9.1960    4.0330    2.3260 h1        1 MOL      0.073057
    173 H82        -9.5590    5.8830   -0.2300 hc        1 MOL      0.046095
    174 H83        -9.6840    6.2370    1.4490 hc        1 MOL      0.046095
    175 H84       -11.4550    4.6790    1.8160 hc        1 MOL      0.061461
    176 H85       -11.6910    4.5780    0.0890 hc        1 MOL      0.061461
    177 N15        -6.6780    4.2940    0.2780 n         1 MOL     -0.357426
    178 C54        -7.0910    4.6000   -1.1610 c3        1 MOL      0.001010
    179 H86        -8.0400    5.1370   -1.1590 h1        1 MOL      0.036928
    180 H87        -6.3260    5.2150   -1.6360 h1        1 MOL      0.036928
    181 H88        -7.2020    3.6670   -1.7140 h1        1 MOL      0.036928
    182 H89        -5.6890    4.1370    0.4100 hn        1 MOL      0.294431
    183 Ca1         6.2490    4.5500   -0.0040 Ca        1 MOL      1.750015
    184 O25         3.7420    5.4090   -0.7480 oh        1 MOL     -0.884283
    185 H90         3.3800    6.0540   -0.1430 ho        1 MOL      0.435595
    186 H91         2.9760    5.0950   -1.2430 ho        1 MOL      0.435595
    187 O26         6.3260    6.3780    2.1340 oh        1 MOL     -0.884283
    188 H92         6.1200    6.0720    3.0200 ho        1 MOL      0.435595
    189 H93         7.2730    6.5270    2.1550 ho        1 MOL      0.435595
    190 O27         5.1780    2.5190   -1.2390 oh        1 MOL     -0.884283
    191 H94         4.3250    2.2140   -0.9230 ho        1 MOL      0.435595
    192 H95         5.2110    2.2330   -2.1650 ho        1 MOL      0.435595
@<TRIPOS>BOND
     1    1    2 1   
     2    1    4 1   
     3    1    5 1   
     4    1    6 1   
     5    2    3 2   
     6    2    7 1   
     7    7    8 1   
     8    7   15 1   
     9    8    9 1   
    10    8   11 1   
    11    8   16 1   
    12    9   10 2   
    13    9   19 1   
    14   11   12 1   
    15   11   17 1   
    16   11   18 1   
    17   12   13 1   
    18   12   14 1   
    19   19   20 1   
    20   19   28 1   
    21   20   21 1   
    22   20   23 1   
    23   20   29 1   
    24   21   22 2   
    25   21   41 1   
    26   23   24 1   
    27   23   30 1   
    28   23   31 1   
    29   24   25 1   
    30   24   32 1   
    31   24   33 1   
    32   25   26 1   
    33   25   34 1   
    34   25   35 1   
    35   26   27 1   
    36   26   36 1   
    37   26   37 1   
    38   27   38 1   
    39   27   39 1   
    40   27   40 1   
    41   41   42 1   
    42   41   49 1   
    43   42   43 1   
    44   42   45 1   
    45   42   50 1   
    46   43   44 2   
    47   43   53 1   
    48   45   46 1   
    49   45   51 1   
    50   45   52 1   
    51   46   47 1   
    52   46   48 1   
    53   53   54 1   
    54   53   57 1   
    55   54   55 1   
    56   54   58 1   
    57   54   59 1   
    58   55   56 2   
    59   55   60 1   
    60   60   61 1   
    61   60   68 1   
    62   61   62 1   
    63   61   64 1   
    64   61   69 1   
    65   62   63 2   
    66   62   72 1   
    67   64   65 1   
    68   64   70 1   
    69   64   71 1   
    70   65   66 1   
    71   65   67 1   
    72   72   73 1   
    73   72   76 1   
    74   73   74 1   
    75   73   77 1   
    76   73   78 1   
    77   74   75 2   
    78   74   79 1   
    79   79   80 1   
    80   79   86 1   
    81   80   81 1   
    82   80   83 1   
    83   80   87 1   
    84   81   82 2   
    85   81   93 1   
    86   83   84 1   
    87   83   85 1   
    88   83   88 1   
    89   84   90 1   
    90   84   91 1   
    91   84   92 1   
    92   85   89 1   
    93   93   94 1   
    94   93  101 1   
    95   94   95 1   
    96   94   97 1   
    97   94  102 1   
    98   95   96 2   
    99   95  112 1   
   100   97   98 1   
   101   97   99 1   
   102   97  103 1   
   103   98  100 1   
   104   98  104 1   
   105   98  105 1   
   106   99  106 1   
   107   99  107 1   
   108   99  108 1   
   109  100  109 1   
   110  100  110 1   
   111  100  111 1   
   112  112  113 1   
   113  112  119 1   
   114  113  114 1   
   115  113  116 1   
   116  113  120 1   
   117  114  115 2   
   118  114  126 1   
   119  116  117 1   
   120  116  118 1   
   121  116  121 1   
   122  117  123 1   
   123  117  124 1   
   124  117  125 1   
   125  118  122 1   
   126  126  127 1   
   127  126  133 1   
   128  127  128 1   
   129  127  130 1   
   130  127  134 1   
   131  128  129 2   
   132  128  140 1   
   133  130  131 1   
   134  130  132 1   
   135  130  135 1   
   136  131  137 1   
   137  131  138 1   
   138  131  139 1   
   139  132  136 1   
   140  140  141 1   
   141  140  149 1   
   142  141  142 1   
   143  141  144 1   
   144  141  150 1   
   145  142  143 2   
   146  142  162 1   
   147  144  145 1   
   148  144  151 1   
   149  144  152 1   
   150  145  146 1   
   151  145  153 1   
   152  145  154 1   
   153  146  147 1   
   154  146  155 1   
   155  146  156 1   
   156  147  148 1   
   157  147  157 1   
   158  147  158 1   
   159  148  159 1   
   160  148  160 1   
   161  148  161 1   
   162  162  163 1   
   163  162  171 1   
   164  163  164 1   
   165  163  166 1   
   166  163  172 1   
   167  164  165 2   
   168  164  177 1   
   169  166  167 1   
   170  166  173 1   
   171  166  174 1   
   172  167  168 1   
   173  167  175 1   
   174  167  176 1   
   175  168  169 1   
   176  168  170 1   
   177  177  178 1   
   178  177  182 1   
   179  178  179 1   
   180  178  180 1   
   181  178  181 1   
   182  184  185 1   
   183  184  186 1   
   184  187  188 1   
   185  187  189 1   
   186  190  191 1   
   187  190  192 1   
@<TRIPOS>SUBSTRUCTURE
     1 MOL         1 TEMP              0 ****  ****    0 ROOT
