@<TRIPOS>MOLECULE
MOL
  181   177     1     0     0
SMALL
resp


@<TRIPOS>ATOM
      1 C1          9.3310    7.5020   -1.6130 c3        1 MOL     -0.360436
      2 C2          8.2860    6.3260   -1.4890 c         1 MOL      0.612201
      3 O1          7.1160    6.5700   -1.2520 o         1 MOL     -0.553586
      4 H1          9.3930    7.8240   -2.6520 hc        1 MOL      0.096161
      5 H2          9.0130    8.3390   -0.9910 hc        1 MOL      0.096161
      6 H3         10.3100    7.1540   -1.2820 hc        1 MOL      0.096161
      7 N1          8.6830    5.0720   -1.5950 n         1 MOL     -0.476057
      8 C3         10.0120    4.5000   -1.9870 c3        1 MOL      0.150938
      9 C4         10.8060    4.1060   -0.7520 c         1 MOL      0.577721
     10 O2         12.0430    4.2450   -0.7540 o         1 MOL     -0.594135
     11 C5          9.8140    3.2950   -2.8340 c3        1 MOL     -0.332847
     12 C6          8.9840    2.0330   -2.3760 c         1 MOL      0.757078
     13 O3          8.9790    1.1010   -3.2250 o         1 MOL     -0.766066
     14 O4          8.4070    1.8480   -1.2860 o         1 MOL     -0.766066
     15 H4          7.9000    4.4710   -1.3620 hn        1 MOL      0.242968
     16 H5         10.6600    5.1480   -2.5850 h1        1 MOL      0.055941
     17 H6         10.7760    2.8080   -3.0110 hc        1 MOL      0.105326
     18 H7          9.4460    3.6660   -3.7950 hc        1 MOL      0.105326
     19 N2         10.1370    3.6290    0.2740 n         1 MOL     -0.553950
     20 C7         10.7530    3.2930    1.5570 c3        1 MOL      0.241546
     21 C8         10.1980    1.9960    2.2300 c         1 MOL      0.391140
     22 O5         10.6080    1.5860    3.3150 o         1 MOL     -0.530858
     23 C9         10.8090    4.5270    2.5120 c3        1 MOL     -0.111573
     24 H8          9.1510    3.4740    0.1450 hn        1 MOL      0.345294
     25 H9         11.8320    3.1990    1.4620 h1        1 MOL      0.057393
     26 H10        11.4520    4.2890    3.3580 hc        1 MOL      0.034446
     27 H11        11.2800    5.3620    1.9930 hc        1 MOL      0.034446
     28 H12         9.8490    4.8040    2.9370 hc        1 MOL      0.034446
     29 N3          9.2120    1.2390    1.5740 n         1 MOL     -0.328935
     30 C10         8.5330    0.0510    2.1620 c3        1 MOL      0.070627
     31 C11         8.4670   -1.1730    1.2470 c         1 MOL      0.445468
     32 O6          8.5780   -0.9950    0.0370 o         1 MOL     -0.567156
     33 C12         7.1510    0.5720    2.6860 c3        1 MOL     -0.236232
     34 C13         6.1890    1.0740    1.6960 c         1 MOL      0.723897
     35 O7          6.2460    0.8010    0.4820 o         1 MOL     -0.682825
     36 O8          5.3180    1.8630    2.1030 o         1 MOL     -0.682825
     37 H13         8.9260    1.5720    0.6540 hn        1 MOL      0.238776
     38 H14         9.1000   -0.2680    3.0300 h1        1 MOL      0.054644
     39 H15         7.4430    1.3790    3.3500 hc        1 MOL      0.067488
     40 H16         6.7210   -0.2630    3.2460 hc        1 MOL      0.067488
     41 N4          8.0740   -2.3280    1.7230 n         1 MOL     -0.344226
     42 C14         7.6400   -3.5660    1.0330 c3        1 MOL     -0.023590
     43 C15         6.5780   -3.4260   -0.0650 c         1 MOL      0.579373
     44 O9          6.1930   -2.3630   -0.4010 o         1 MOL     -0.510925
     45 H17         8.2500   -2.5120    2.6970 hn        1 MOL      0.264009
     46 H18         7.4160   -4.3780    1.7180 h1        1 MOL      0.055302
     47 H19         8.4730   -4.0360    0.5130 h1        1 MOL      0.055302
     48 N5          6.0000   -4.5060   -0.6060 n         1 MOL     -0.549440
     49 C16         4.8610   -4.4970   -1.6000 c3        1 MOL     -0.215778
     50 C17         3.4690   -4.3250   -0.8940 c         1 MOL      0.687435
     51 O10         2.4800   -4.0820   -1.5600 o         1 MOL     -0.541190
     52 C18         4.8350   -5.8700   -2.3000 c3        1 MOL     -0.387516
     53 C19         6.0620   -6.1740   -3.0790 c         1 MOL      0.891064
     54 N6          6.7650   -7.2420   -2.6930 n         1 MOL     -0.909584
     55 O11         6.3680   -5.5020   -4.0330 o         1 MOL     -0.604959
     56 H20         6.2820   -5.4310   -0.3180 hn        1 MOL      0.285276
     57 H21         4.9180   -3.7480   -2.3910 h1        1 MOL      0.233891
     58 H22         3.9890   -5.9340   -2.9810 hc        1 MOL      0.117742
     59 H23         4.7570   -6.6180   -1.5050 hc        1 MOL      0.117742
     60 H24         6.5030   -7.7330   -1.8420 hn        1 MOL      0.384343
     61 H25         7.5670   -7.6120   -3.1800 hn        1 MOL      0.384343
     62 N7          3.3520   -4.2930    0.4080 n         1 MOL     -0.417092
     63 C20         2.0990   -4.2190    1.2630 c3        1 MOL     -0.164066
     64 C21         1.8660   -2.8010    1.8030 c         1 MOL      0.680464
     65 O12         2.7310   -1.8780    1.6750 o         1 MOL     -0.543286
     66 H26         4.1970   -4.4290    0.9450 hn        1 MOL      0.282093
     67 H27         2.2450   -4.8840    2.1060 h1        1 MOL      0.119322
     68 H28         1.2270   -4.5540    0.6990 h1        1 MOL      0.119322
     69 N8          0.7800   -2.4850    2.4750 n         1 MOL     -0.512913
     70 C22        -0.2790   -3.3690    2.9560 c3        1 MOL     -0.048138
     71 C23        -1.6730   -2.7410    2.7540 c         1 MOL      0.560272
     72 O13        -2.6660   -3.3850    3.0050 o         1 MOL     -0.558386
     73 C24        -0.0650   -3.5410    4.4670 c3        1 MOL      0.335041
     74 C25         0.9490   -4.6750    4.7670 c3        1 MOL     -0.266953
     75 O14         0.3290   -2.4530    5.1570 oh        1 MOL     -0.601003
     76 H29         0.6840   -1.4950    2.6680 hn        1 MOL      0.317181
     77 H30        -0.3150   -4.3410    2.4720 h1        1 MOL      0.108473
     78 H31        -1.0160   -3.8940    4.8940 h1        1 MOL     -0.003864
     79 H32        -0.2730   -2.2600    5.8800 ho        1 MOL      0.432859
     80 H33         0.6970   -5.6400    4.3200 hc        1 MOL      0.049209
     81 H34         1.9150   -4.5020    4.2930 hc        1 MOL      0.049209
     82 H35         1.0460   -4.7800    5.8450 hc        1 MOL      0.049209
     83 N9         -1.6690   -1.5020    2.2190 n         1 MOL     -0.442418
     84 C26        -2.8950   -0.6210    2.1940 c3        1 MOL     -0.062407
     85 C27        -3.1580   -0.0890    0.7330 c         1 MOL      0.608090
     86 O15        -2.2400    0.4030    0.1430 o         1 MOL     -0.561711
     87 C28        -2.8160    0.5240    3.2270 c3        1 MOL      0.127716
     88 C29        -2.6570    0.0010    4.6510 c3        1 MOL      0.004323
     89 C30        -3.9750    1.5060    3.1370 c3        1 MOL     -0.255788
     90 C31        -2.4190    0.9980    5.7960 c3        1 MOL     -0.056982
     91 H36        -0.7830   -1.1100    1.9200 hn        1 MOL      0.285505
     92 H37        -3.7460   -1.2120    2.5330 h1        1 MOL      0.079351
     93 H38        -1.8670    1.0180    2.9960 hc        1 MOL     -0.019555
     94 H39        -1.9010   -0.7770    4.7720 hc        1 MOL     -0.005964
     95 H40        -3.6010   -0.4320    4.9760 hc        1 MOL     -0.005964
     96 H41        -3.8780    2.3700    3.7920 hc        1 MOL      0.095471
     97 H42        -3.9870    1.7630    2.0810 hc        1 MOL      0.095471
     98 H43        -4.8670    0.9840    3.4650 hc        1 MOL      0.095471
     99 H44        -2.1410    0.4950    6.7140 hc        1 MOL      0.005311
    100 H45        -1.5090    1.5610    5.5550 hc        1 MOL      0.005311
    101 H46        -3.2340    1.7070    5.9490 hc        1 MOL      0.005311
    102 N10        -4.3050   -0.1980    0.0990 n         1 MOL     -0.426257
    103 C32        -5.4720   -0.9850    0.5110 c3        1 MOL      0.135171
    104 C33        -6.6980   -0.5860   -0.2880 c         1 MOL      0.226092
    105 O16        -6.7160    0.0410   -1.3870 o         1 MOL     -0.441733
    106 C34        -5.2130   -2.4920    0.3600 c3        1 MOL     -0.100355
    107 C35        -4.7330   -2.6990   -1.0970 c         1 MOL      0.707102
    108 O17        -3.5080   -2.9610   -1.3500 o         1 MOL     -0.707837
    109 O18        -5.6110   -2.7950   -2.0140 o         1 MOL     -0.707837
    110 H47        -4.3350    0.2180   -0.8170 hn        1 MOL      0.303527
    111 H48        -5.7540   -0.8760    1.5640 h1        1 MOL      0.026010
    112 H49        -6.1020   -3.1050    0.4820 hc        1 MOL      0.001226
    113 H50        -4.3860   -2.7570    1.0160 hc        1 MOL      0.001226
    114 N11        -7.8480   -0.9610    0.1910 n         1 MOL     -0.306609
    115 C36        -9.1430   -0.8730   -0.4820 c3        1 MOL      0.239943
    116 C37       -10.3910   -0.2590    0.2820 c         1 MOL      0.145023
    117 O19       -10.5490   -0.7080    1.4500 o         1 MOL     -0.482769
    118 C38        -9.3510   -2.2680   -1.1140 c3        1 MOL     -0.227720
    119 C39       -10.6500   -2.3600   -1.8810 ca        1 MOL      0.164578
    120 C40       -11.8180   -2.5760   -1.1380 ca        1 MOL     -0.253420
    121 C41       -10.6910   -2.1350   -3.3060 ca        1 MOL     -0.253420
    122 C42       -13.0610   -2.5160   -1.8490 ca        1 MOL     -0.016022
    123 C43       -11.8960   -2.1560   -3.9970 ca        1 MOL     -0.016022
    124 C44       -13.1150   -2.3920   -3.2560 ca        1 MOL     -0.242158
    125 H51        -7.8440   -1.4190    1.0900 hn        1 MOL      0.273721
    126 H52        -8.9820   -0.2330   -1.3490 h1        1 MOL      0.063394
    127 H53        -9.3010   -3.0950   -0.4100 hc        1 MOL      0.090104
    128 H54        -8.4670   -2.4070   -1.7340 hc        1 MOL      0.090104
    129 H55       -11.7970   -2.7720   -0.0800 ha        1 MOL      0.160771
    130 H56        -9.7540   -1.9330   -3.7880 ha        1 MOL      0.160771
    131 H57       -13.9500   -2.8080   -1.3030 ha        1 MOL      0.079629
    132 H58       -11.9740   -1.8900   -5.0390 ha        1 MOL      0.079629
    133 H59       -14.0900   -2.3580   -3.7230 ha        1 MOL      0.113709
    134 N12       -11.1290    0.7680   -0.2470 n         1 MOL      0.124838
    135 C45       -11.0600    1.3750   -1.5600 c3        1 MOL      0.134760
    136 C46        -9.8330    2.2830   -1.6480 c         1 MOL      0.355436
    137 O20        -9.1680    2.3500   -2.7160 o         1 MOL     -0.548160
    138 C47       -12.3520    2.2450   -1.7260 c3        1 MOL     -0.021984
    139 C48       -13.2780    1.4940   -0.8490 c3        1 MOL     -0.054403
    140 C49       -12.4250    1.0810    0.3610 c3        1 MOL     -0.043077
    141 H60       -11.0600    0.5920   -2.3150 h1        1 MOL      0.028388
    142 H61       -12.2220    3.2880   -1.4540 hc        1 MOL      0.029066
    143 H62       -12.5410    2.2890   -2.8070 hc        1 MOL      0.029066
    144 H63       -14.1190    2.1220   -0.5480 hc        1 MOL      0.003094
    145 H64       -13.6450    0.5970   -1.3360 hc        1 MOL      0.003094
    146 H65       -12.3150    1.8350    1.1330 h1        1 MOL      0.045151
    147 H66       -12.8900    0.1850    0.7780 h1        1 MOL      0.045151
    148 N13        -9.4080    2.9330   -0.5270 n         1 MOL     -0.448432
    149 C50        -8.2580    3.8310   -0.4790 c3        1 MOL      0.459071
    150 C51        -8.5880    5.1140   -1.2440 c         1 MOL      0.353414
    151 O21        -9.3140    5.9640   -0.7590 o         1 MOL     -0.594076
    152 C52        -7.8890    4.0710    0.9680 c3        1 MOL      0.044300
    153 C53        -7.0620    3.1260    1.7890 c3        1 MOL     -0.143820
    154 C54        -7.1500    3.5390    3.2740 c         1 MOL      0.770802
    155 O22        -7.6540    2.7840    4.1150 o         1 MOL     -0.733804
    156 O23        -6.8160    4.7260    3.6290 o         1 MOL     -0.733804
    157 H67       -10.0520    3.0260    0.2480 hn        1 MOL      0.251278
    158 H68        -7.4520    3.3810   -1.0570 h1        1 MOL      0.002173
    159 H69        -8.8240    4.2490    1.5030 hc        1 MOL     -0.031349
    160 H70        -7.2500    4.9510    0.9160 hc        1 MOL     -0.031349
    161 H71        -6.0380    3.0500    1.4220 hc        1 MOL     -0.051056
    162 H72        -7.5610    2.1780    1.6190 hc        1 MOL     -0.051056
    163 N14        -8.0940    5.3570   -2.4590 n         1 MOL     -0.257347
    164 C55        -7.0610    4.5700   -3.2170 c3        1 MOL     -0.322480
    165 H73        -6.6530    5.1860   -4.0180 h1        1 MOL      0.125939
    166 H74        -6.2590    4.2760   -2.5400 h1        1 MOL      0.125939
    167 H75        -7.5230    3.6800   -3.6430 h1        1 MOL      0.125939
    168 H76        -8.4070    6.1810   -2.9420 hn        1 MOL      0.252075
    169 Ca1         6.9090   -0.2460   -1.8570 Ca        1 MOL      1.760992
    170 O24         4.3580   -0.9460   -2.2120 oh        1 MOL     -0.824664
    171 H77         3.8770   -1.4450   -2.8830 ho        1 MOL      0.412959
    172 H78         3.6790   -0.4840   -1.7250 ho        1 MOL      0.412959
    173 O25         8.2390   -2.5800   -2.9110 oh        1 MOL     -0.824664
    174 H79         8.0990   -2.7650   -3.8450 ho        1 MOL      0.412959
    175 H80         8.7600   -3.3210   -2.6020 ho        1 MOL      0.412959
    176 O26         6.5000   -0.8310   -4.5740 oh        1 MOL     -0.824664
    177 H81         6.0800   -1.5090   -5.1060 ho        1 MOL      0.412959
    178 H82         6.9740   -0.2860   -5.2060 ho        1 MOL      0.412959
    179 O27         5.6230    1.8720   -2.5260 oh        1 MOL     -0.824664
    180 H83         5.1580    2.3730   -3.2020 ho        1 MOL      0.412959
    181 H84         6.1800    2.5220   -2.0830 ho        1 MOL      0.412959
@<TRIPOS>BOND
     1    1    2 1   
     2    1    4 1   
     3    1    5 1   
     4    1    6 1   
     5    2    3 2   
     6    2    7 1   
     7    7    8 1   
     8    7   15 1   
     9    8    9 1   
    10    8   11 1   
    11    8   16 1   
    12    9   10 2   
    13    9   19 1   
    14   11   12 1   
    15   11   17 1   
    16   11   18 1   
    17   12   13 1   
    18   12   14 1   
    19   19   20 1   
    20   19   24 1   
    21   20   21 1   
    22   20   23 1   
    23   20   25 1   
    24   21   22 2   
    25   21   29 1   
    26   23   26 1   
    27   23   27 1   
    28   23   28 1   
    29   29   30 1   
    30   29   37 1   
    31   30   31 1   
    32   30   33 1   
    33   30   38 1   
    34   31   32 2   
    35   31   41 1   
    36   33   34 1   
    37   33   39 1   
    38   33   40 1   
    39   34   35 1   
    40   34   36 1   
    41   41   42 1   
    42   41   45 1   
    43   42   43 1   
    44   42   46 1   
    45   42   47 1   
    46   43   44 2   
    47   43   48 1   
    48   48   49 1   
    49   48   56 1   
    50   49   50 1   
    51   49   52 1   
    52   49   57 1   
    53   50   51 2   
    54   50   62 1   
    55   52   53 1   
    56   52   58 1   
    57   52   59 1   
    58   53   54 1   
    59   53   55 2   
    60   54   60 1   
    61   54   61 1   
    62   62   63 1   
    63   62   66 1   
    64   63   64 1   
    65   63   67 1   
    66   63   68 1   
    67   64   65 2   
    68   64   69 1   
    69   69   70 1   
    70   69   76 1   
    71   70   71 1   
    72   70   73 1   
    73   70   77 1   
    74   71   72 2   
    75   71   83 1   
    76   73   74 1   
    77   73   75 1   
    78   73   78 1   
    79   74   80 1   
    80   74   81 1   
    81   74   82 1   
    82   75   79 1   
    83   83   84 1   
    84   83   91 1   
    85   84   85 1   
    86   84   87 1   
    87   84   92 1   
    88   85   86 2   
    89   85  102 1   
    90   87   88 1   
    91   87   89 1   
    92   87   93 1   
    93   88   90 1   
    94   88   94 1   
    95   88   95 1   
    96   89   96 1   
    97   89   97 1   
    98   89   98 1   
    99   90   99 1   
   100   90  100 1   
   101   90  101 1   
   102  102  103 1   
   103  102  110 1   
   104  103  104 1   
   105  103  106 1   
   106  103  111 1   
   107  104  105 2   
   108  104  114 1   
   109  106  107 1   
   110  106  112 1   
   111  106  113 1   
   112  107  108 1   
   113  107  109 1   
   114  114  115 1   
   115  114  125 1   
   116  115  116 1   
   117  115  118 1   
   118  115  126 1   
   119  116  117 2   
   120  116  134 1   
   121  118  119 1   
   122  118  127 1   
   123  118  128 1   
   124  119  120 ar  
   125  119  121 ar  
   126  120  122 ar  
   127  120  129 1   
   128  121  123 ar  
   129  121  130 1   
   130  122  124 ar  
   131  122  131 1   
   132  123  124 ar  
   133  123  132 1   
   134  124  133 1   
   135  134  135 1   
   136  134  140 1   
   137  135  136 1   
   138  135  138 1   
   139  135  141 1   
   140  136  137 2   
   141  136  148 1   
   142  138  139 1   
   143  138  142 1   
   144  138  143 1   
   145  139  140 1   
   146  139  144 1   
   147  139  145 1   
   148  140  146 1   
   149  140  147 1   
   150  148  149 1   
   151  148  157 1   
   152  149  150 1   
   153  149  152 1   
   154  149  158 1   
   155  150  151 2   
   156  150  163 1   
   157  152  153 1   
   158  152  159 1   
   159  152  160 1   
   160  153  154 1   
   161  153  161 1   
   162  153  162 1   
   163  154  155 1   
   164  154  156 1   
   165  163  164 1   
   166  163  168 1   
   167  164  165 1   
   168  164  166 1   
   169  164  167 1   
   170  170  171 1   
   171  170  172 1   
   172  173  174 1   
   173  173  175 1   
   174  176  177 1   
   175  176  178 1   
   176  179  180 1   
   177  179  181 1   
@<TRIPOS>SUBSTRUCTURE
     1 MOL         1 TEMP              0 ****  ****    0 ROOT
