@<TRIPOS>MOLECULE
MOL
  178   175     1     0     0
SMALL
resp


@<TRIPOS>ATOM
      1 C1          0.8280    6.5650   -1.2890 c3        1 MOL     -0.405165
      2 C2          2.3880    6.4140   -1.0220 c         1 MOL      0.747234
      3 O1          2.9130    7.2480   -0.3280 o         1 MOL     -0.599961
      4 H1          0.2790    5.9140   -0.6080 hc        1 MOL      0.092129
      5 H2          0.5290    7.5990   -1.1220 hc        1 MOL      0.092129
      6 H3          0.6060    6.2830   -2.3190 hc        1 MOL      0.092129
      7 N1          2.9940    5.4440   -1.6220 n         1 MOL     -0.547053
      8 C3          4.3750    5.0260   -1.5560 c3        1 MOL      0.093639
      9 C4          4.6380    3.8230   -0.6740 c         1 MOL      0.601797
     10 O2          3.9970    2.7830   -0.7200 o         1 MOL     -0.582052
     11 C5          4.9840    4.8860   -2.9610 c3        1 MOL     -0.185429
     12 C6          6.4630    4.3700   -2.9100 c         1 MOL      0.679707
     13 O3          7.2530    4.9030   -2.0800 o         1 MOL     -0.709041
     14 O4          6.8620    3.4930   -3.7200 o         1 MOL     -0.709041
     15 H4          2.4240    4.9100   -2.2630 hn        1 MOL      0.295150
     16 H5          4.8760    5.9170   -1.1890 h1        1 MOL      0.067948
     17 H6          4.8650    5.8630   -3.4240 hc        1 MOL      0.014903
     18 H7          4.3410    4.2140   -3.5340 hc        1 MOL      0.014903
     19 N2          5.6250    4.0120    0.1980 n         1 MOL     -0.429493
     20 C7          5.8220    3.0670    1.3490 c3        1 MOL      0.326551
     21 C8          4.6550    3.2710    2.3980 c         1 MOL      0.456208
     22 O5          3.9500    4.2950    2.4040 o         1 MOL     -0.544548
     23 C9          7.1300    3.5090    1.9950 c3        1 MOL     -0.358884
     24 H8          6.0460    4.9240    0.2420 hn        1 MOL      0.252652
     25 H9          5.8210    2.0210    1.0280 h1        1 MOL      0.089003
     26 H10         7.2200    4.5770    2.1750 hc        1 MOL      0.089677
     27 H11         7.0520    3.1060    3.0150 hc        1 MOL      0.089677
     28 H12         8.0190    3.1240    1.4870 hc        1 MOL      0.089677
     29 N3          4.3240    2.2470    3.2430 n         1 MOL     -0.390995
     30 C10         4.9670    0.9050    3.3200 c3        1 MOL     -0.039475
     31 C11         4.7380    0.0070    2.1570 c         1 MOL      0.360574
     32 O6          3.7120    0.0400    1.4810 o         1 MOL     -0.513425
     33 C12         4.5480    0.1290    4.6180 c3        1 MOL     -0.126987
     34 C13         3.0750    0.0830    4.9590 c         1 MOL      0.610763
     35 O7          2.2910   -0.2930    4.0480 o         1 MOL     -0.643246
     36 O8          2.6420    0.2560    6.1030 o         1 MOL     -0.643246
     37 H13         3.5140    2.4330    3.8100 hn        1 MOL      0.319821
     38 H14         6.0490    1.0020    3.3320 h1        1 MOL      0.053571
     39 H15         5.0780    0.4690    5.5100 hc        1 MOL      0.037621
     40 H16         4.7900   -0.9120    4.4190 hc        1 MOL      0.037621
     41 N4          5.6650   -0.9020    1.8810 n         1 MOL     -0.431623
     42 C14         5.7680   -1.7300    0.6650 c3        1 MOL      0.098286
     43 C15         6.5340   -1.0910   -0.4800 c         1 MOL      0.466581
     44 O9          6.9330    0.1360   -0.4080 o         1 MOL     -0.490675
     45 H17         6.3800   -0.9870    2.5940 hn        1 MOL      0.272020
     46 H18         4.7600   -1.9290    0.2930 h1        1 MOL      0.103737
     47 H19         6.1580   -2.7200    0.9020 h1        1 MOL      0.103737
     48 N5          6.9230   -1.8770   -1.5090 n         1 MOL     -0.567527
     49 C16         6.6670   -3.3550   -1.7200 c3        1 MOL      0.000771
     50 C17         5.5920   -3.6290   -2.7850 c         1 MOL      0.578598
     51 O10         5.4460   -4.8100   -3.1770 o         1 MOL     -0.502292
     52 C18         7.9960   -4.0160   -2.0790 c3        1 MOL     -0.304545
     53 C19         9.0040   -4.0450   -0.9980 c         1 MOL      0.708811
     54 N6          9.8150   -3.0550   -0.7880 n         1 MOL     -0.818117
     55 O11         9.0550   -5.0730   -0.3120 o         1 MOL     -0.586354
     56 H20         7.4610   -1.4080   -2.2230 hn        1 MOL      0.328159
     57 H21         6.3840   -3.7650   -0.7460 h1        1 MOL      0.124336
     58 H22         8.4410   -3.5280   -2.9520 hc        1 MOL      0.105742
     59 H23         7.7940   -5.0390   -2.4040 hc        1 MOL      0.105742
     60 H24         9.6730   -2.2050   -1.3160 hn        1 MOL      0.385454
     61 H25        10.5430   -3.1540   -0.0910 hn        1 MOL      0.385454
     62 N7          4.7970   -2.6500   -3.2490 n         1 MOL     -0.398348
     63 C20         3.5980   -2.8480   -4.0520 c3        1 MOL     -0.295738
     64 C21         2.4100   -3.4270   -3.2500 c         1 MOL      0.472463
     65 O12         1.4950   -4.0900   -3.8180 o         1 MOL     -0.519493
     66 H26         4.8570   -1.6920   -2.9460 hn        1 MOL      0.317980
     67 H27         3.8760   -3.6020   -4.7930 h1        1 MOL      0.166290
     68 H28         3.2940   -1.9150   -4.5210 h1        1 MOL      0.166290
     69 N8          2.5480   -3.2340   -1.9400 n         1 MOL     -0.026770
     70 C22         1.7200   -3.8030   -0.8730 c3        1 MOL     -0.304524
     71 C23         0.4800   -2.9350   -0.6120 c         1 MOL      0.436908
     72 O13         0.4720   -1.7160   -0.4730 o         1 MOL     -0.598814
     73 C24         2.4480   -3.9640    0.5030 c3        1 MOL      0.520799
     74 C25         3.7510   -4.7260    0.3310 c3        1 MOL     -0.139331
     75 O14         2.7060   -2.6920    1.0210 oh        1 MOL     -0.776560
     76 H29         3.2940   -2.5890   -1.7210 hn        1 MOL      0.140559
     77 H30         1.4600   -4.8220   -1.1530 h1        1 MOL      0.127320
     78 H31         1.7980   -4.5460    1.1660 h1        1 MOL     -0.002646
     79 H32         3.0090   -2.8500    1.9200 ho        1 MOL      0.385664
     80 H33         4.3360   -4.5980    1.2430 hc        1 MOL      0.017638
     81 H34         3.4510   -5.7770    0.3970 hc        1 MOL      0.017638
     82 H35         4.3150   -4.3940   -0.5360 hc        1 MOL      0.017638
     83 N9         -0.7070   -3.5450   -0.5350 n         1 MOL     -0.248913
     84 C26        -2.0060   -2.8760   -0.3560 c3        1 MOL     -0.003394
     85 C27        -2.5020   -3.0050    1.0800 c         1 MOL      0.386104
     86 O15        -2.5710   -4.1490    1.5120 o         1 MOL     -0.561067
     87 C28        -3.0090   -3.4480   -1.4540 c3        1 MOL      0.094521
     88 C29        -4.4210   -2.8400   -1.3400 c3        1 MOL      0.189197
     89 C30        -2.4620   -3.1150   -2.8740 c3        1 MOL     -0.261503
     90 C31        -5.4710   -3.3920   -2.3180 c3        1 MOL     -0.312626
     91 H36        -0.8460   -4.5520   -0.5870 hn        1 MOL      0.229641
     92 H37        -1.8910   -1.8230   -0.6100 h1        1 MOL      0.235418
     93 H38        -3.1090   -4.5130   -1.2790 hc        1 MOL     -0.002336
     94 H39        -4.3790   -1.7520   -1.4200 hc        1 MOL     -0.026171
     95 H40        -4.7970   -3.0910   -0.3530 hc        1 MOL     -0.026171
     96 H41        -2.3780   -2.0270   -2.9820 hc        1 MOL      0.059239
     97 H42        -1.5520   -3.6580   -3.1250 hc        1 MOL      0.059239
     98 H43        -3.1260   -3.5590   -3.6150 hc        1 MOL      0.059239
     99 H44        -6.4730   -3.0640   -2.0330 hc        1 MOL      0.055895
    100 H45        -5.1730   -3.0990   -3.3330 hc        1 MOL      0.055895
    101 H46        -5.4920   -4.4750   -2.2630 hc        1 MOL      0.055895
    102 N10        -2.9130   -1.9010    1.6940 n         1 MOL     -0.150101
    103 C32        -3.8960   -2.0670    2.7720 c3        1 MOL      0.042056
    104 C33        -5.3110   -1.7620    2.3010 c         1 MOL      0.294169
    105 O16        -6.2860   -2.1880    2.9850 o         1 MOL     -0.544894
    106 C34        -3.5320   -1.0790    3.8680 c3        1 MOL     -0.123884
    107 C35        -2.0330   -1.1010    4.1930 c         1 MOL      0.874538
    108 O17        -1.2970   -0.1660    3.7810 o         1 MOL     -0.763649
    109 O18        -1.5820   -1.9470    4.9690 o         1 MOL     -0.763649
    110 H47        -2.8950   -1.0510    1.1460 hn        1 MOL     -0.093455
    111 H48        -3.9370   -3.0430    3.2570 h1        1 MOL      0.107798
    112 H49        -3.9680   -1.3960    4.8190 hc        1 MOL      0.013291
    113 H50        -3.7080   -0.0320    3.6250 hc        1 MOL      0.013291
    114 N11        -5.5480   -0.9540    1.2180 n         1 MOL     -0.022434
    115 C36        -6.9010   -0.4410    0.8610 c3        1 MOL      0.068156
    116 C37        -6.8850    0.9620    0.1860 c         1 MOL      0.222941
    117 O19        -7.3840    1.0870   -0.9650 o         1 MOL     -0.472100
    118 C38        -7.6140   -1.4250   -0.0760 c3        1 MOL     -0.348398
    119 C39        -9.1000   -1.1830   -0.2290 ca        1 MOL      0.332354
    120 C40        -9.9530   -1.0000    0.8400 ca        1 MOL     -0.247105
    121 C41        -9.6630   -1.4840   -1.4720 ca        1 MOL     -0.247105
    122 C42       -11.3770   -0.9530    0.7600 ca        1 MOL     -0.095596
    123 C43       -11.0750   -1.3940   -1.6770 ca        1 MOL     -0.095596
    124 C44       -11.9310   -1.1500   -0.5490 ca        1 MOL     -0.180947
    125 H51        -4.7170   -0.5910    0.7750 hn        1 MOL      0.195853
    126 H52        -7.4080   -0.3360    1.8170 h1        1 MOL      0.053404
    127 H53        -7.5200   -2.4720    0.2150 hc        1 MOL      0.125019
    128 H54        -7.1050   -1.3240   -1.0320 hc        1 MOL      0.125019
    129 H55        -9.6270   -0.7850    1.8410 ha        1 MOL      0.132570
    130 H56        -8.9950   -1.8230   -2.2560 ha        1 MOL      0.132570
    131 H57       -12.0190   -0.7050    1.5890 ha        1 MOL      0.108202
    132 H58       -11.5330   -1.7110   -2.6000 ha        1 MOL      0.108202
    133 H59       -13.0020   -1.2910   -0.5970 ha        1 MOL      0.103853
    134 N12        -6.2770    1.9620    0.8030 n         1 MOL      0.035335
    135 C45        -6.2380    3.3630    0.3150 c3        1 MOL     -0.011449
    136 C46        -5.4170    3.4950   -0.9510 c         1 MOL      0.220360
    137 O20        -5.7220    4.3630   -1.6910 o         1 MOL     -0.480157
    138 C47        -5.4960    4.2000    1.4280 c3        1 MOL     -0.002699
    139 C48        -5.7870    3.3490    2.6770 c3        1 MOL     -0.071394
    140 C49        -5.7530    1.9180    2.1690 c3        1 MOL     -0.066480
    141 H60        -7.2730    3.6830    0.1470 h1        1 MOL      0.088907
    142 H61        -4.4330    4.2270    1.1850 hc        1 MOL      0.046375
    143 H62        -5.9420    5.1840    1.5110 hc        1 MOL      0.046375
    144 H63        -5.0490    3.6600    3.4180 hc        1 MOL      0.027016
    145 H64        -6.8250    3.5540    2.9370 hc        1 MOL      0.027016
    146 H65        -4.7140    1.5910    2.1910 h1        1 MOL      0.068260
    147 H66        -6.3410    1.2870    2.8340 h1        1 MOL      0.068260
    148 N13        -4.5760    2.4970   -1.3040 n         1 MOL      0.095938
    149 C50        -3.8930    2.3670   -2.6320 c3        1 MOL     -0.272547
    150 C51        -4.8640    2.1010   -3.8320 c         1 MOL      0.579543
    151 O21        -4.7950    2.8150   -4.7980 o         1 MOL     -0.542155
    152 C52        -2.8940    1.1940   -2.6600 c3        1 MOL     -0.017980
    153 C53        -1.6190    1.0990   -1.7400 c3        1 MOL      0.087532
    154 C54        -1.9480    0.8490   -0.1900 c         1 MOL      0.438132
    155 O22        -0.9600    0.8550    0.5980 o         1 MOL     -0.509922
    156 O23        -3.1480    0.4620    0.1650 o         1 MOL     -0.509922
    157 H67        -4.4200    1.7940   -0.6010 hn        1 MOL      0.014238
    158 H68        -3.4020    3.3370   -2.7160 h1        1 MOL      0.122014
    159 H69        -2.5930    1.1770   -3.7090 hc        1 MOL     -0.006269
    160 H70        -3.4470    0.2530   -2.6610 hc        1 MOL     -0.006269
    161 H71        -0.9120    1.9200   -1.8710 hc        1 MOL     -0.010116
    162 H72        -1.0840    0.2570   -2.1910 hc        1 MOL     -0.010116
    163 N14        -5.9280    1.2670   -3.5960 n         1 MOL     -0.202413
    164 C55        -6.9860    0.9550   -4.5790 c3        1 MOL     -0.299540
    165 H73        -7.6410    0.1840   -4.1740 h1        1 MOL      0.110982
    166 H74        -7.5680    1.8540   -4.7850 h1        1 MOL      0.110982
    167 H75        -6.5310    0.5970   -5.5020 h1        1 MOL      0.110982
    168 H76        -6.0650    0.9030   -2.6610 hn        1 MOL      0.200160
    169 Ca1         1.0920   -0.2160    1.6860 Ca        1 MOL      1.772772
    170 O24         1.7120    1.4450   -0.5090 oh        1 MOL     -0.911268
    171 H77         1.9170    1.0010   -1.3330 ho        1 MOL      0.428546
    172 H78         2.4100    2.0950   -0.4010 ho        1 MOL      0.428546
    173 O25         1.2960    2.2890    2.2640 oh        1 MOL     -0.911268
    174 H79         1.8910    2.9970    2.0510 ho        1 MOL      0.428546
    175 H80         0.5120    2.7240    2.6040 ho        1 MOL      0.428546
    176 O26         0.2330   -2.4880    2.8820 oh        1 MOL     -0.911268
    177 H81         0.5640   -3.3290    3.1860 ho        1 MOL      0.428546
    178 H82        -0.2690   -2.1500    3.6250 ho        1 MOL      0.428546
@<TRIPOS>BOND
     1    1    2 1   
     2    1    4 1   
     3    1    5 1   
     4    1    6 1   
     5    2    3 2   
     6    2    7 1   
     7    7    8 1   
     8    7   15 1   
     9    8    9 1   
    10    8   11 1   
    11    8   16 1   
    12    9   10 2   
    13    9   19 1   
    14   11   12 1   
    15   11   17 1   
    16   11   18 1   
    17   12   13 1   
    18   12   14 1   
    19   19   20 1   
    20   19   24 1   
    21   20   21 1   
    22   20   23 1   
    23   20   25 1   
    24   21   22 2   
    25   21   29 1   
    26   23   26 1   
    27   23   27 1   
    28   23   28 1   
    29   29   30 1   
    30   29   37 1   
    31   30   31 1   
    32   30   33 1   
    33   30   38 1   
    34   31   32 2   
    35   31   41 1   
    36   33   34 1   
    37   33   39 1   
    38   33   40 1   
    39   34   35 1   
    40   34   36 1   
    41   41   42 1   
    42   41   45 1   
    43   42   43 1   
    44   42   46 1   
    45   42   47 1   
    46   43   44 2   
    47   43   48 1   
    48   48   49 1   
    49   48   56 1   
    50   49   50 1   
    51   49   52 1   
    52   49   57 1   
    53   50   51 2   
    54   50   62 1   
    55   52   53 1   
    56   52   58 1   
    57   52   59 1   
    58   53   54 1   
    59   53   55 2   
    60   54   60 1   
    61   54   61 1   
    62   62   63 1   
    63   62   66 1   
    64   63   64 1   
    65   63   67 1   
    66   63   68 1   
    67   64   65 2   
    68   64   69 1   
    69   69   70 1   
    70   69   76 1   
    71   70   71 1   
    72   70   73 1   
    73   70   77 1   
    74   71   72 2   
    75   71   83 1   
    76   73   74 1   
    77   73   75 1   
    78   73   78 1   
    79   74   80 1   
    80   74   81 1   
    81   74   82 1   
    82   75   79 1   
    83   83   84 1   
    84   83   91 1   
    85   84   85 1   
    86   84   87 1   
    87   84   92 1   
    88   85   86 2   
    89   85  102 1   
    90   87   88 1   
    91   87   89 1   
    92   87   93 1   
    93   88   90 1   
    94   88   94 1   
    95   88   95 1   
    96   89   96 1   
    97   89   97 1   
    98   89   98 1   
    99   90   99 1   
   100   90  100 1   
   101   90  101 1   
   102  102  103 1   
   103  102  110 1   
   104  103  104 1   
   105  103  106 1   
   106  103  111 1   
   107  104  105 2   
   108  104  114 1   
   109  106  107 1   
   110  106  112 1   
   111  106  113 1   
   112  107  108 1   
   113  107  109 1   
   114  114  115 1   
   115  114  125 1   
   116  115  116 1   
   117  115  118 1   
   118  115  126 1   
   119  116  117 2   
   120  116  134 1   
   121  118  119 1   
   122  118  127 1   
   123  118  128 1   
   124  119  120 ar  
   125  119  121 ar  
   126  120  122 ar  
   127  120  129 1   
   128  121  123 ar  
   129  121  130 1   
   130  122  124 ar  
   131  122  131 1   
   132  123  124 ar  
   133  123  132 1   
   134  124  133 1   
   135  134  135 1   
   136  134  140 1   
   137  135  136 1   
   138  135  138 1   
   139  135  141 1   
   140  136  137 2   
   141  136  148 1   
   142  138  139 1   
   143  138  142 1   
   144  138  143 1   
   145  139  140 1   
   146  139  144 1   
   147  139  145 1   
   148  140  146 1   
   149  140  147 1   
   150  148  149 1   
   151  148  157 1   
   152  149  150 1   
   153  149  152 1   
   154  149  158 1   
   155  150  151 2   
   156  150  163 1   
   157  152  153 1   
   158  152  159 1   
   159  152  160 1   
   160  153  154 1   
   161  153  161 1   
   162  153  162 1   
   163  154  155 1   
   164  154  156 1   
   165  163  164 1   
   166  163  168 1   
   167  164  165 1   
   168  164  166 1   
   169  164  167 1   
   170  170  171 1   
   171  170  172 1   
   172  173  174 1   
   173  173  175 1   
   174  176  177 1   
   175  176  178 1   
@<TRIPOS>SUBSTRUCTURE
     1 MOL         1 TEMP              0 ****  ****    0 ROOT
