@<TRIPOS>MOLECULE
MOL
  182   178     1     0     0
SMALL
resp


@<TRIPOS>ATOM
      1 C1         -0.0340   -3.3390    5.9830 c3        1 MOL     -0.419268
      2 C2          0.0110   -3.4360    4.4700 c         1 MOL      0.708519
      3 O1         -1.0020   -3.6580    3.7680 o         1 MOL     -0.564323
      4 H1         -0.1940   -4.3310    6.4060 hc        1 MOL      0.121883
      5 H2          0.9110   -2.9370    6.3500 hc        1 MOL      0.121883
      6 H3         -0.8500   -2.6820    6.2820 hc        1 MOL      0.121883
      7 N1          1.2360   -3.3290    3.9290 n         1 MOL     -0.541475
      8 C3          1.5740   -3.2050    2.5260 c3        1 MOL      0.079670
      9 C4          1.4010   -4.5950    1.7920 c         1 MOL      0.541728
     10 O2          1.0540   -5.6520    2.4070 o         1 MOL     -0.536977
     11 C5          2.9760   -2.6090    2.4850 c3        1 MOL     -0.350189
     12 C6          3.2100   -1.7930    1.1950 c         1 MOL      0.470306
     13 O3          3.6440   -0.6590    1.3300 o         1 MOL     -0.647439
     14 O4          2.9290   -2.1840    0.0460 o         1 MOL     -0.647439
     15 H4          1.9190   -3.1040    4.6460 hn        1 MOL      0.299156
     16 H5          0.8760   -2.5190    2.0430 h1        1 MOL     -0.003617
     17 H6          3.6700   -3.4440    2.5430 hc        1 MOL      0.150624
     18 H7          3.0760   -1.8850    3.2860 hc        1 MOL      0.150624
     19 N2          1.5300   -4.5460    0.4740 n         1 MOL     -0.324289
     20 C7          1.8980   -5.6140   -0.3520 c3        1 MOL      0.047851
     21 C8          3.2990   -5.5150   -1.0290 c         1 MOL      0.349714
     22 O5          4.0400   -6.5040   -1.2010 o         1 MOL     -0.507907
     23 C9          0.7860   -5.8190   -1.3920 c3        1 MOL      0.063585
     24 C10        -0.4200   -6.5600   -0.7080 c3        1 MOL      0.054052
     25 C11        -1.5460   -6.6990   -1.7040 c3        1 MOL     -0.021583
     26 C12        -2.8170   -7.4660   -1.2070 c3        1 MOL      0.069187
     27 N3         -3.6380   -7.8340   -2.3660 n4        1 MOL     -0.168387
     28 H8          1.9170   -3.6940    0.1130 hn        1 MOL      0.345668
     29 H9          1.9000   -6.5260    0.2480 h1        1 MOL      0.058284
     30 H10         1.1170   -6.4080   -2.2400 hc        1 MOL     -0.025013
     31 H11         0.4680   -4.8380   -1.7380 hc        1 MOL     -0.025013
     32 H12        -0.7780   -5.9780    0.1420 hc        1 MOL      0.016922
     33 H13        -0.1160   -7.5360   -0.3380 hc        1 MOL      0.016922
     34 H14        -1.2330   -7.3050   -2.5510 hc        1 MOL      0.006850
     35 H15        -1.8560   -5.7410   -2.1250 hc        1 MOL      0.006850
     36 H16        -3.5040   -6.8650   -0.6260 hx        1 MOL      0.061395
     37 H17        -2.5290   -8.3560   -0.6390 hx        1 MOL      0.061395
     38 H18        -4.4200   -8.3910   -2.0850 hn        1 MOL      0.226756
     39 H19        -3.9700   -6.9350   -2.6840 hn        1 MOL      0.226756
     40 H20        -3.0330   -8.1320   -3.1250 hn        1 MOL      0.226756
     41 N4          3.6470   -4.3080   -1.5960 n         1 MOL     -0.129858
     42 C13         4.9630   -4.0840   -2.3050 c3        1 MOL     -0.112722
     43 C14         6.0710   -3.6250   -1.3210 c         1 MOL      0.476631
     44 O6          7.1950   -3.5370   -1.7000 o         1 MOL     -0.502608
     45 C15         4.7430   -3.0570   -3.4350 c3        1 MOL     -0.233868
     46 C16         4.1380   -1.8100   -2.9610 c         1 MOL      0.787576
     47 O7          4.7840   -1.0050   -2.2140 o         1 MOL     -0.762657
     48 O8          2.9510   -1.5440   -3.2960 o         1 MOL     -0.762657
     49 H21         3.0590   -3.5430   -1.3070 hn        1 MOL     -0.009078
     50 H22         5.3430   -5.0150   -2.7230 h1        1 MOL      0.152816
     51 H23         4.1240   -3.4680   -4.2360 hc        1 MOL      0.088437
     52 H24         5.6550   -2.7820   -3.9650 hc        1 MOL      0.088437
     53 N5          5.5850   -3.3520   -0.0580 n         1 MOL     -0.158432
     54 C17         6.4720   -3.0390    1.0960 c3        1 MOL     -0.236269
     55 C18         7.2910   -1.7290    0.9750 c         1 MOL      0.596116
     56 O9          8.3790   -1.6520    1.6060 o         1 MOL     -0.570234
     57 H25         4.5800   -3.3770    0.0220 hn        1 MOL      0.152584
     58 H26         7.1880   -3.8600    1.2160 h1        1 MOL      0.112336
     59 H27         5.8790   -3.0340    2.0100 h1        1 MOL      0.112336
     60 N6          6.9730   -0.7740    0.0920 n         1 MOL     -0.332565
     61 C19         7.5250    0.5620    0.0290 c3        1 MOL      0.105287
     62 C20         6.3880    1.6820   -0.2050 c         1 MOL      0.451971
     63 O10         5.2530    1.3720   -0.6640 o         1 MOL     -0.461121
     64 C21         8.6230    0.5750   -1.0450 c3        1 MOL     -0.298183
     65 C22         9.6110    1.6780   -0.8480 c         1 MOL      0.685189
     66 N7         10.3110    1.7970    0.2800 n         1 MOL     -0.847719
     67 O11         9.6450    2.5530   -1.6980 o         1 MOL     -0.581948
     68 H28         6.2250   -0.9540   -0.5500 hn        1 MOL      0.306718
     69 H29         7.9560    0.7010    1.0180 h1        1 MOL      0.005286
     70 H30         8.1090    0.7110   -2.0010 hc        1 MOL      0.113635
     71 H31         9.1760   -0.3590   -1.0660 hc        1 MOL      0.113635
     72 H32        10.3330    1.0240    0.9350 hn        1 MOL      0.388931
     73 H33        11.0200    2.5140    0.2880 hn        1 MOL      0.388931
     74 N8          6.7960    2.9690    0.0200 n         1 MOL     -0.314271
     75 C23         6.0110    4.1260   -0.2860 c3        1 MOL     -0.272816
     76 C24         4.7490    4.3060    0.6040 c         1 MOL      0.582397
     77 O12         4.7280    4.0640    1.8080 o         1 MOL     -0.477304
     78 H34         7.7280    3.1850    0.3490 hn        1 MOL      0.312965
     79 H35         5.7100    3.9550   -1.3140 h1        1 MOL      0.136218
     80 H36         6.6760    4.9800   -0.1850 h1        1 MOL      0.136218
     81 N9          3.6580    4.6110   -0.1310 n         1 MOL     -0.463543
     82 C25         2.3200    4.6130    0.4660 c3        1 MOL     -0.038958
     83 C26         1.7410    3.2050    0.8360 c         1 MOL      0.476300
     84 O13         2.4230    2.1970    0.5990 o         1 MOL     -0.503396
     85 C27         1.4140    5.3250   -0.5350 c3        1 MOL     -0.157215
     86 C28         1.7180    6.7920   -0.6410 ca        1 MOL      0.042512
     87 C29         1.7870    7.5010    0.5280 ca        1 MOL     -0.118825
     88 C30         1.7880    7.4790   -1.9140 ca        1 MOL     -0.118825
     89 C31         2.1320    8.8430    0.5730 ca        1 MOL     -0.329728
     90 C32         2.1380    8.8540   -1.9010 ca        1 MOL     -0.329728
     91 C33         2.2890    9.5170   -0.6520 ca        1 MOL      0.421391
     92 O14         2.5510   10.7970   -0.5580 oh        1 MOL     -0.479406
     93 H37         3.7730    4.7100   -1.1220 hn        1 MOL      0.286181
     94 H38         2.4520    5.0340    1.4650 h1        1 MOL      0.117399
     95 H39         0.3600    5.1940   -0.2730 hc        1 MOL      0.067558
     96 H40         1.4920    4.8620   -1.5120 hc        1 MOL      0.067558
     97 H41         1.6790    6.9920    1.4800 ha        1 MOL      0.129034
     98 H42         1.6010    6.9250   -2.8210 ha        1 MOL      0.129034
     99 H43         2.1720    9.4500    1.4600 ha        1 MOL      0.175695
    100 H44         2.1490    9.3980   -2.8440 ha        1 MOL      0.175695
    101 H45         2.4120   11.1090    0.3330 ho        1 MOL      0.364735
    102 N10         0.6180    3.1120    1.5400 n         1 MOL     -0.451052
    103 C34         0.0940    1.8700    2.0820 c3        1 MOL      0.154734
    104 C35        -0.1750    0.7670    1.0050 c         1 MOL      0.059347
    105 O15         0.6650    0.0490    0.5050 o         1 MOL     -0.032985
    106 C36         0.8510    1.4510    3.2930 c3        1 MOL      0.171088
    107 C37         0.1470    0.3730    4.0830 c3        1 MOL     -0.040569
    108 C38         1.2730    2.6820    4.2040 c3        1 MOL     -0.148726
    109 C39        -0.9480    0.9650    4.9920 c3        1 MOL     -0.419565
    110 H46         0.1230    3.9850    1.6550 hn        1 MOL      0.286763
    111 H47        -0.8640    2.2030    2.5020 h1        1 MOL      0.056310
    112 H48         1.7720    1.0130    2.9100 hc        1 MOL     -0.002171
    113 H49         0.8460   -0.0910    4.7840 hc        1 MOL      0.056404
    114 H50        -0.2550   -0.4380    3.4630 hc        1 MOL      0.056404
    115 H51         1.8770    3.3780    3.6340 hc        1 MOL      0.038947
    116 H52         0.3670    3.2230    4.4520 hc        1 MOL      0.038947
    117 H53         1.8320    2.4120    5.1030 hc        1 MOL      0.038947
    118 H54        -0.5140    1.3550    5.9140 hc        1 MOL      0.104895
    119 H55        -1.6370    1.6800    4.5410 hc        1 MOL      0.104895
    120 H56        -1.6130    0.1460    5.2660 hc        1 MOL      0.104895
    121 N11        -1.4860    0.5160    0.7720 n         1 MOL     -0.412128
    122 C40        -1.8970   -0.6540   -0.0630 c3        1 MOL     -0.032344
    123 C41        -3.3700   -0.6890   -0.4580 c         1 MOL      0.559151
    124 O16        -3.8670   -1.5750   -1.1610 o         1 MOL     -0.577763
    125 C42        -1.5470   -1.9250    0.7570 c3        1 MOL      0.417722
    126 O17        -2.1170   -1.8330    2.0300 oh        1 MOL     -0.647672
    127 H57        -2.2300    0.9030    1.3280 hn        1 MOL      0.319043
    128 H58        -1.3510   -0.7940   -0.9900 h1        1 MOL      0.060420
    129 H59        -0.4680   -2.0840    0.7440 h1        1 MOL     -0.086657
    130 H60        -1.9550   -2.7800    0.2050 h1        1 MOL     -0.086657
    131 H61        -1.7370   -2.5130    2.6040 ho        1 MOL      0.412556
    132 N12        -4.1130    0.2910   -0.0310 n         1 MOL     -0.437962
    133 C43        -5.5410    0.3800   -0.3780 c3        1 MOL      0.133863
    134 C44        -5.6100    0.8470   -1.8450 c         1 MOL      0.579628
    135 O18        -4.6810    1.6160   -2.2910 o         1 MOL     -0.570771
    136 C45        -6.1820    1.3410    0.6710 c3        1 MOL     -0.245347
    137 H62        -3.6860    0.9970    0.5540 hn        1 MOL      0.234003
    138 H63        -5.9950   -0.6120   -0.3640 h1        1 MOL      0.084818
    139 H64        -7.0610    1.7290    0.1570 hc        1 MOL      0.087239
    140 H65        -6.5110    0.7610    1.5280 hc        1 MOL      0.087239
    141 H66        -5.5020    2.1330    0.9830 hc        1 MOL      0.087239
    142 N13        -6.7570    0.6320   -2.5640 n         1 MOL     -0.570301
    143 C46        -7.9990    0.0630   -1.9700 c3        1 MOL      0.266529
    144 C47        -9.2780    0.6200   -2.6890 c         1 MOL      0.356788
    145 O19        -9.3250    0.8640   -3.9180 o         1 MOL     -0.497517
    146 C48        -8.0050   -1.4350   -2.2590 c3        1 MOL     -0.294237
    147 H67        -6.7380    0.9740   -3.5120 hn        1 MOL      0.332691
    148 H68        -8.1340    0.2620   -0.9040 h1        1 MOL     -0.006640
    149 H69        -8.9340   -1.9280   -1.9580 hc        1 MOL      0.093432
    150 H70        -7.7600   -1.6250   -3.3020 hc        1 MOL      0.093432
    151 H71        -7.1630   -1.9090   -1.7560 hc        1 MOL      0.093432
    152 N14       -10.4280    0.9470   -1.9700 n         1 MOL     -0.340305
    153 C49       -10.5940    0.7150   -0.4770 c3        1 MOL     -0.165322
    154 C50        -9.9190    1.8270    0.3490 c         1 MOL      0.475609
    155 O20        -9.5080    1.6030    1.5180 o         1 MOL     -0.528344
    156 C51       -12.1140    0.5420   -0.2470 c3        1 MOL      0.127679
    157 C52       -12.5540   -0.0100    1.1640 c3        1 MOL     -0.210057
    158 C53       -14.0730   -0.1060    1.1620 c         1 MOL      0.669248
    159 O21       -14.5710   -1.2720    1.0390 o         1 MOL     -0.652743
    160 O22       -14.7660    0.9390    1.1720 o         1 MOL     -0.652743
    161 H72       -11.2290    1.3230   -2.4580 hn        1 MOL      0.273426
    162 H73       -10.0830   -0.2070   -0.2130 h1        1 MOL      0.125271
    163 H74       -12.4680   -0.1530   -1.0090 hc        1 MOL      0.013309
    164 H75       -12.5720    1.5280   -0.3490 hc        1 MOL      0.013309
    165 H76       -12.3980    0.7880    1.8890 hc        1 MOL      0.041316
    166 H77       -12.0450   -0.9130    1.4900 hc        1 MOL      0.041316
    167 N15        -9.7720    3.0650   -0.1460 n         1 MOL     -0.208462
    168 C54        -9.0390    4.1630    0.5150 c3        1 MOL     -0.274622
    169 H78        -8.8010    4.9340   -0.2190 h1        1 MOL      0.116846
    170 H79        -9.6570    4.5910    1.3030 h1        1 MOL      0.116846
    171 H80        -8.1160    3.7750    0.9460 h1        1 MOL      0.116846
    172 H81       -10.1300    3.3160   -1.0590 hn        1 MOL      0.224452
    173 Ca1         2.7560    0.1690   -1.1230 Ca        1 MOL      1.750049
    174 O23         0.5460    1.4520   -2.1490 oh        1 MOL     -0.859305
    175 H82        -0.1050    1.0520   -2.7180 ho        1 MOL      0.421359
    176 H83         0.2700    2.3730   -2.0710 ho        1 MOL      0.421359
    177 O24         3.3920    1.8190   -3.0570 oh        1 MOL     -0.859305
    178 H84         4.1340    2.4190   -3.1190 ho        1 MOL      0.421359
    179 H85         3.1990    1.5770   -3.9590 ho        1 MOL      0.421359
    180 O25         0.7620   -2.0030   -2.0210 oh        1 MOL     -0.859305
    181 H86         0.0660   -2.6210   -2.2330 ho        1 MOL      0.421359
    182 H87         1.2880   -1.9430   -2.8150 ho        1 MOL      0.421359
@<TRIPOS>BOND
     1    1    2 1   
     2    1    4 1   
     3    1    5 1   
     4    1    6 1   
     5    2    3 2   
     6    2    7 1   
     7    7    8 1   
     8    7   15 1   
     9    8    9 1   
    10    8   11 1   
    11    8   16 1   
    12    9   10 2   
    13    9   19 1   
    14   11   12 1   
    15   11   17 1   
    16   11   18 1   
    17   12   13 1   
    18   12   14 1   
    19   19   20 1   
    20   19   28 1   
    21   20   21 1   
    22   20   23 1   
    23   20   29 1   
    24   21   22 2   
    25   21   41 1   
    26   23   24 1   
    27   23   30 1   
    28   23   31 1   
    29   24   25 1   
    30   24   32 1   
    31   24   33 1   
    32   25   26 1   
    33   25   34 1   
    34   25   35 1   
    35   26   27 1   
    36   26   36 1   
    37   26   37 1   
    38   27   38 1   
    39   27   39 1   
    40   27   40 1   
    41   41   42 1   
    42   41   49 1   
    43   42   43 1   
    44   42   45 1   
    45   42   50 1   
    46   43   44 2   
    47   43   53 1   
    48   45   46 1   
    49   45   51 1   
    50   45   52 1   
    51   46   47 1   
    52   46   48 1   
    53   53   54 1   
    54   53   57 1   
    55   54   55 1   
    56   54   58 1   
    57   54   59 1   
    58   55   56 2   
    59   55   60 1   
    60   60   61 1   
    61   60   68 1   
    62   61   62 1   
    63   61   64 1   
    64   61   69 1   
    65   62   63 2   
    66   62   74 1   
    67   64   65 1   
    68   64   70 1   
    69   64   71 1   
    70   65   66 1   
    71   65   67 2   
    72   66   72 1   
    73   66   73 1   
    74   74   75 1   
    75   74   78 1   
    76   75   76 1   
    77   75   79 1   
    78   75   80 1   
    79   76   77 2   
    80   76   81 1   
    81   81   82 1   
    82   81   93 1   
    83   82   83 1   
    84   82   85 1   
    85   82   94 1   
    86   83   84 2   
    87   83  102 1   
    88   85   86 1   
    89   85   95 1   
    90   85   96 1   
    91   86   87 ar  
    92   86   88 ar  
    93   87   89 ar  
    94   87   97 1   
    95   88   90 ar  
    96   88   98 1   
    97   89   91 ar  
    98   89   99 1   
    99   90   91 ar  
   100   90  100 1   
   101   91   92 1   
   102   92  101 1   
   103  102  103 1   
   104  102  110 1   
   105  103  104 1   
   106  103  106 1   
   107  103  111 1   
   108  104  105 2   
   109  104  121 1   
   110  106  107 1   
   111  106  108 1   
   112  106  112 1   
   113  107  109 1   
   114  107  113 1   
   115  107  114 1   
   116  108  115 1   
   117  108  116 1   
   118  108  117 1   
   119  109  118 1   
   120  109  119 1   
   121  109  120 1   
   122  121  122 1   
   123  121  127 1   
   124  122  123 1   
   125  122  125 1   
   126  122  128 1   
   127  123  124 2   
   128  123  132 1   
   129  125  126 1   
   130  125  129 1   
   131  125  130 1   
   132  126  131 1   
   133  132  133 1   
   134  132  137 1   
   135  133  134 1   
   136  133  136 1   
   137  133  138 1   
   138  134  135 2   
   139  134  142 1   
   140  136  139 1   
   141  136  140 1   
   142  136  141 1   
   143  142  143 1   
   144  142  147 1   
   145  143  144 1   
   146  143  146 1   
   147  143  148 1   
   148  144  145 2   
   149  144  152 1   
   150  146  149 1   
   151  146  150 1   
   152  146  151 1   
   153  152  153 1   
   154  152  161 1   
   155  153  154 1   
   156  153  156 1   
   157  153  162 1   
   158  154  155 2   
   159  154  167 1   
   160  156  157 1   
   161  156  163 1   
   162  156  164 1   
   163  157  158 1   
   164  157  165 1   
   165  157  166 1   
   166  158  159 1   
   167  158  160 1   
   168  167  168 1   
   169  167  172 1   
   170  168  169 1   
   171  168  170 1   
   172  168  171 1   
   173  174  175 1   
   174  174  176 1   
   175  177  178 1   
   176  177  179 1   
   177  180  181 1   
   178  180  182 1   
@<TRIPOS>SUBSTRUCTURE
     1 MOL         1 TEMP              0 ****  ****    0 ROOT
