@<TRIPOS>MOLECULE
MOL
  181   177     1     0     0
SMALL
resp


@<TRIPOS>ATOM
      1 C1          2.9790   -2.1710    4.1320 c3        1 MOL     -0.259434
      2 C2          4.2200   -1.6100    3.3220 c         1 MOL      0.531721
      3 O1          4.1660   -1.6010    2.0530 o         1 MOL     -0.534875
      4 H1          2.7910   -1.5330    4.9940 hc        1 MOL      0.073604
      5 H2          2.1000   -2.1820    3.4890 hc        1 MOL      0.073604
      6 H3          3.1940   -3.1850    4.4710 hc        1 MOL      0.073604
      7 N1          5.1730   -1.0010    3.9870 n         1 MOL     -0.330986
      8 C3          6.3970   -0.3300    3.4090 c3        1 MOL     -0.012044
      9 C4          7.1370   -1.1460    2.3860 c         1 MOL      0.518870
     10 O2          7.6520   -0.5740    1.4130 o         1 MOL     -0.466103
     11 C5          7.3660   -0.0780    4.6210 c3        1 MOL     -0.285555
     12 C6          8.5120    0.8810    4.3120 c         1 MOL      0.758309
     13 O3          8.3200    2.1360    4.2850 o         1 MOL     -0.721750
     14 O4          9.6980    0.5080    4.1710 o         1 MOL     -0.721750
     15 H4          5.2140   -1.1610    4.9920 hn        1 MOL      0.247187
     16 H5          6.0060    0.5350    2.8790 h1        1 MOL      0.101155
     17 H6          7.7750   -1.0520    4.8900 hc        1 MOL      0.036346
     18 H7          6.7760    0.3540    5.4280 hc        1 MOL      0.036346
     19 N2          7.1220   -2.4630    2.5030 n         1 MOL     -0.377330
     20 C7          7.5070   -3.4480    1.4820 c3        1 MOL      0.195330
     21 C8          6.7900   -3.3980    0.0960 c         1 MOL      0.422858
     22 O5          7.3390   -3.7390   -0.9420 o         1 MOL     -0.497964
     23 C9          9.0200   -3.5200    1.4800 c3        1 MOL     -0.326602
     24 H8          6.7600   -2.9350    3.3160 hn        1 MOL      0.232906
     25 H9          7.1230   -4.3830    1.8850 h1        1 MOL      0.035688
     26 H10         9.3740   -4.3890    0.9320 hc        1 MOL      0.088240
     27 H11         9.3660   -2.6340    0.9590 hc        1 MOL      0.088240
     28 H12         9.4540   -3.6970    2.4680 hc        1 MOL      0.088240
     29 N3          5.5020   -2.8940    0.0930 n         1 MOL     -0.582518
     30 C10         4.5920   -2.6710   -0.9350 c3        1 MOL      0.544774
     31 C11         5.0690   -1.5820   -1.9720 c         1 MOL      0.244780
     32 O6          4.9280   -1.6770   -3.1930 o         1 MOL     -0.449823
     33 C12         3.9300   -3.8820   -1.5470 c3        1 MOL     -0.201796
     34 C13         2.8340   -3.7180   -2.6260 c         1 MOL      0.709842
     35 O7          1.8980   -2.9010   -2.3390 o         1 MOL     -0.679450
     36 O8          2.8830   -4.4030   -3.6410 o         1 MOL     -0.679450
     37 H13         5.1690   -2.6250    1.0120 hn        1 MOL      0.225705
     38 H14         3.7390   -2.2060   -0.4310 h1        1 MOL     -0.078785
     39 H15         3.5510   -4.4880   -0.7140 hc        1 MOL      0.024116
     40 H16         4.6840   -4.5310   -1.9860 hc        1 MOL      0.024116
     41 N4          5.8340   -0.6420   -1.3580 n         1 MOL     -0.009455
     42 C14         6.5690    0.3390   -2.0820 c3        1 MOL     -0.257212
     43 C15         5.6920    1.4520   -2.5420 c         1 MOL      0.538399
     44 O9          6.2330    2.2760   -3.2870 o         1 MOL     -0.548534
     45 H17         5.9710   -0.5700   -0.3580 hn        1 MOL      0.125689
     46 H18         7.0120   -0.1600   -2.9470 h1        1 MOL      0.124145
     47 H19         7.3920    0.7180   -1.4770 h1        1 MOL      0.124145
     48 N5          4.3970    1.4830   -2.1530 n         1 MOL     -0.235424
     49 C16         3.4320    2.3840   -2.7410 c3        1 MOL      0.035985
     50 C17         3.7110    3.8490   -2.3810 c         1 MOL      0.378114
     51 O10         4.4810    4.1520   -1.4130 o         1 MOL     -0.472740
     52 C18         2.0060    1.9650   -2.4530 c3        1 MOL     -0.105870
     53 C19         1.8630    0.4180   -2.6000 c         1 MOL      0.465542
     54 N6          1.9460   -0.4040   -1.5530 n         1 MOL     -0.282052
     55 O11         1.5800   -0.0340   -3.7180 o         1 MOL     -0.573369
     56 H20         4.0850    0.8310   -1.4480 hn        1 MOL      0.091155
     57 H21         3.6280    2.3290   -3.8080 h1        1 MOL      0.045770
     58 H22         1.2930    2.4870   -3.0890 hc        1 MOL      0.042306
     59 H23         1.8230    2.3540   -1.4510 hc        1 MOL      0.042306
     60 H24         2.2580   -0.1010   -0.6410 hn        1 MOL      0.249916
     61 H25         1.9440   -1.3980   -1.7150 hn        1 MOL      0.249916
     62 N7          2.9240    4.7190   -3.0790 n         1 MOL     -0.286454
     63 C20         2.5540    6.0980   -2.7220 c3        1 MOL     -0.122090
     64 C21         0.9900    6.2470   -2.4770 c         1 MOL      0.623838
     65 O12         0.1100    5.5850   -3.0710 o         1 MOL     -0.522993
     66 H26         2.5210    4.3200   -3.9140 hn        1 MOL      0.248279
     67 H27         2.7510    6.7800   -3.5490 h1        1 MOL      0.081644
     68 H28         3.0970    6.3290   -1.8070 h1        1 MOL      0.081644
     69 N8          0.6530    7.0380   -1.4650 n         1 MOL     -0.600025
     70 C22        -0.7210    7.2620   -1.0390 c3        1 MOL     -0.085879
     71 C23        -1.3770    6.1720   -0.1280 c         1 MOL      0.516369
     72 O13        -2.5650    6.2520    0.1810 o         1 MOL     -0.536439
     73 C24        -0.6660    8.6110   -0.1970 c3        1 MOL      0.288883
     74 C25        -1.9400    9.1810    0.3000 c3        1 MOL     -0.356919
     75 O14         0.0650    8.4600    0.9710 oh        1 MOL     -0.639740
     76 H29         1.4230    7.3040   -0.8530 hn        1 MOL      0.333758
     77 H30        -1.4010    7.2360   -1.8970 h1        1 MOL      0.147628
     78 H31        -0.1280    9.3720   -0.7620 h1        1 MOL      0.041328
     79 H32        -0.0740    9.1530    1.6150 ho        1 MOL      0.418006
     80 H33        -2.8110    8.9760   -0.3320 hc        1 MOL      0.090495
     81 H34        -2.2310    8.8080    1.2840 hc        1 MOL      0.090495
     82 H35        -1.8570   10.2720    0.3000 hc        1 MOL      0.090495
     83 N9         -0.5280    5.3010    0.3510 n         1 MOL     -0.201957
     84 C26        -0.7730    4.0690    1.1110 c3        1 MOL     -0.103946
     85 C27        -1.0890    2.9110    0.2080 c         1 MOL      0.522759
     86 O15        -0.6870    2.8750   -0.9370 o         1 MOL     -0.457503
     87 C28         0.2510    3.6710    2.1750 c3        1 MOL      0.189182
     88 C29         1.6480    3.3160    1.5450 c3        1 MOL     -0.256539
     89 C30         0.4700    4.8490    3.1050 c3        1 MOL     -0.228975
     90 C31         2.7150    2.8800    2.6080 c3        1 MOL     -0.201669
     91 H36         0.4000    5.2770   -0.0550 hn        1 MOL      0.213750
     92 H37        -1.6930    4.2030    1.6860 h1        1 MOL      0.044290
     93 H38        -0.1810    2.7990    2.6870 hc        1 MOL      0.017228
     94 H39         2.0650    4.1140    0.9290 hc        1 MOL      0.141119
     95 H40         1.4880    2.4400    0.9100 hc        1 MOL      0.141119
     96 H41         0.9490    5.6930    2.6000 hc        1 MOL      0.056191
     97 H42        -0.4560    5.1000    3.6160 hc        1 MOL      0.056191
     98 H43         0.9900    4.4730    3.9850 hc        1 MOL      0.056191
     99 H44         2.2450    2.3710    3.4440 hc        1 MOL      0.065429
    100 H45         3.4780    2.1670    2.2720 hc        1 MOL      0.065429
    101 H46         3.2410    3.7750    2.9430 hc        1 MOL      0.065429
    102 N10        -1.7980    1.8860    0.7030 n         1 MOL     -0.461150
    103 C32        -2.1830    0.6880   -0.0490 c3        1 MOL     -0.088640
    104 C33        -3.6290    0.2130   -0.0410 c         1 MOL      0.616039
    105 O16        -3.9760   -0.9070   -0.3970 o         1 MOL     -0.548337
    106 C34        -1.2170   -0.3940    0.3660 c3        1 MOL      0.011873
    107 C35        -0.9420   -1.5420   -0.6540 c         1 MOL      0.509957
    108 O17        -0.3240   -2.5220   -0.3510 o         1 MOL     -0.701742
    109 O18        -1.2650   -1.3820   -1.8450 o         1 MOL     -0.701742
    110 H47        -1.8730    1.7620    1.7070 hn        1 MOL      0.254454
    111 H48        -2.0840    0.9070   -1.1110 h1        1 MOL      0.113190
    112 H49        -1.7620   -0.9150    1.1490 hc        1 MOL      0.009423
    113 H50        -0.2710    0.0050    0.7490 hc        1 MOL      0.009423
    114 N11        -4.5190    1.0820    0.3430 n         1 MOL     -0.378209
    115 C36        -5.9220    0.7990    0.1580 c3        1 MOL      0.258518
    116 C37        -6.5230   -0.2920    1.0210 c         1 MOL      0.193122
    117 O19        -6.3690   -0.2340    2.2260 o         1 MOL     -0.465757
    118 C38        -6.7540    2.0660    0.3390 c3        1 MOL     -0.390394
    119 C39        -8.2680    1.8100    0.1230 ca        1 MOL      0.109981
    120 C40        -8.7880    1.9330   -1.2100 ca        1 MOL     -0.156359
    121 C41        -9.0720    1.4630    1.2420 ca        1 MOL     -0.156359
    122 C42       -10.1820    1.8170   -1.3220 ca        1 MOL     -0.110588
    123 C43       -10.4900    1.3230    1.0220 ca        1 MOL     -0.110588
    124 C44       -11.0280    1.4270   -0.2640 ca        1 MOL     -0.126581
    125 H51        -4.2480    1.9750    0.7270 hn        1 MOL      0.244448
    126 H52        -6.1230    0.4210   -0.8470 h1        1 MOL     -0.017398
    127 H53        -6.3100    2.8510   -0.2700 hc        1 MOL      0.138373
    128 H54        -6.4910    2.3900    1.3430 hc        1 MOL      0.138373
    129 H55        -8.1850    2.3470   -2.0050 ha        1 MOL      0.135568
    130 H56        -8.6540    1.2700    2.2210 ha        1 MOL      0.135568
    131 H57       -10.6310    1.9470   -2.2990 ha        1 MOL      0.104175
    132 H58       -11.1680    0.9390    1.7670 ha        1 MOL      0.104175
    133 H59       -12.0980    1.4000   -0.4390 ha        1 MOL      0.106994
    134 N12        -7.1550   -1.3400    0.5180 n         1 MOL      0.065440
    135 C45        -7.5960   -2.5630    1.2730 c3        1 MOL     -0.067047
    136 C46        -6.5360   -3.3260    2.0550 c         1 MOL      0.257717
    137 O20        -6.9170   -4.0720    2.9510 o         1 MOL     -0.510603
    138 C47        -8.3670   -3.4160    0.3300 c3        1 MOL      0.026888
    139 C48        -8.7620   -2.5520   -0.8730 c3        1 MOL     -0.411630
    140 C49        -7.6080   -1.5320   -0.8380 c3        1 MOL      0.341465
    141 H60        -8.3500   -2.1790    1.9520 h1        1 MOL      0.099345
    142 H61        -7.7130   -4.1710   -0.1030 hc        1 MOL      0.054863
    143 H62        -9.2070   -3.9450    0.7930 hc        1 MOL      0.054863
    144 H63        -8.7760   -3.1790   -1.7660 hc        1 MOL      0.105622
    145 H64        -9.6720   -2.0770   -0.5120 hc        1 MOL      0.105622
    146 H65        -6.7780   -1.7870   -1.4940 h1        1 MOL     -0.024789
    147 H66        -8.0410   -0.6420   -1.2830 h1        1 MOL     -0.024789
    148 N13        -5.1820   -3.0140    1.9640 n         1 MOL      0.156164
    149 C50        -4.0800   -3.5420    2.7610 c3        1 MOL     -0.266601
    150 C51        -3.5490   -2.5070    3.7490 c         1 MOL      0.375603
    151 O21        -2.6750   -2.7950    4.5520 o         1 MOL     -0.543283
    152 C52        -2.9300   -3.9640    1.8360 c3        1 MOL      0.179803
    153 C53        -3.4200   -5.1020    0.8650 c3        1 MOL     -0.054690
    154 C54        -2.4130   -5.2760   -0.3050 c         1 MOL      0.649918
    155 O22        -1.4000   -5.9460   -0.2630 o         1 MOL     -0.715386
    156 O23        -2.5840   -4.5570   -1.3330 o         1 MOL     -0.715386
    157 H67        -4.8690   -2.3210    1.2900 hn        1 MOL     -0.029199
    158 H68        -4.4070   -4.4230    3.3180 h1        1 MOL      0.135058
    159 H69        -2.0570   -4.3050    2.4100 hc        1 MOL      0.051989
    160 H70        -2.4840   -3.1300    1.3080 hc        1 MOL      0.051989
    161 H71        -4.4290   -4.9000    0.4990 hc        1 MOL     -0.035233
    162 H72        -3.4260   -5.9570    1.5400 hc        1 MOL     -0.035233
    163 N14        -4.0470   -1.2670    3.6830 n         1 MOL      0.016925
    164 C55        -3.7080   -0.1660    4.6330 c3        1 MOL     -0.254910
    165 H73        -3.5200   -0.5860    5.6220 h1        1 MOL      0.091763
    166 H74        -2.8150    0.3530    4.2850 h1        1 MOL      0.091763
    167 H75        -4.5400    0.5360    4.6890 h1        1 MOL      0.091763
    168 H76        -4.8190   -1.1110    3.0380 hn        1 MOL      0.053515
    169 Ca1        -0.6530   -3.6460   -2.7540 Ca        1 MOL      1.794936
    170 O24         0.7330   -5.9670   -1.7310 oh        1 MOL     -0.889849
    171 H77         0.0020   -6.3570   -1.2360 ho        1 MOL      0.416402
    172 H78         1.4680   -6.5550   -1.5720 ho        1 MOL      0.416402
    173 O25        -0.0020   -1.8640   -4.5480 oh        1 MOL     -0.889849
    174 H79        -0.2410   -1.3790   -5.3360 ho        1 MOL      0.416402
    175 H80         0.6560   -1.3200   -4.1220 ho        1 MOL      0.416402
    176 O26        -3.0210   -3.8450   -4.3450 oh        1 MOL     -0.889849
    177 H81        -3.7800   -3.4500   -3.9350 ho        1 MOL      0.416402
    178 H82        -3.1890   -3.7620   -5.2880 ho        1 MOL      0.416402
    179 O27         0.5770   -4.7930   -4.7660 oh        1 MOL     -0.889849
    180 H83         0.5860   -5.1920   -5.6380 ho        1 MOL      0.416402
    181 H84         1.4690   -4.9050   -4.4410 ho        1 MOL      0.416402
@<TRIPOS>BOND
     1    1    2 1   
     2    1    4 1   
     3    1    5 1   
     4    1    6 1   
     5    2    3 2   
     6    2    7 1   
     7    7    8 1   
     8    7   15 1   
     9    8    9 1   
    10    8   11 1   
    11    8   16 1   
    12    9   10 2   
    13    9   19 1   
    14   11   12 1   
    15   11   17 1   
    16   11   18 1   
    17   12   13 1   
    18   12   14 1   
    19   19   20 1   
    20   19   24 1   
    21   20   21 1   
    22   20   23 1   
    23   20   25 1   
    24   21   22 2   
    25   21   29 1   
    26   23   26 1   
    27   23   27 1   
    28   23   28 1   
    29   29   30 1   
    30   29   37 1   
    31   30   31 1   
    32   30   33 1   
    33   30   38 1   
    34   31   32 2   
    35   31   41 1   
    36   33   34 1   
    37   33   39 1   
    38   33   40 1   
    39   34   35 1   
    40   34   36 1   
    41   41   42 1   
    42   41   45 1   
    43   42   43 1   
    44   42   46 1   
    45   42   47 1   
    46   43   44 2   
    47   43   48 1   
    48   48   49 1   
    49   48   56 1   
    50   49   50 1   
    51   49   52 1   
    52   49   57 1   
    53   50   51 2   
    54   50   62 1   
    55   52   53 1   
    56   52   58 1   
    57   52   59 1   
    58   53   54 1   
    59   53   55 2   
    60   54   60 1   
    61   54   61 1   
    62   62   63 1   
    63   62   66 1   
    64   63   64 1   
    65   63   67 1   
    66   63   68 1   
    67   64   65 2   
    68   64   69 1   
    69   69   70 1   
    70   69   76 1   
    71   70   71 1   
    72   70   73 1   
    73   70   77 1   
    74   71   72 2   
    75   71   83 1   
    76   73   74 1   
    77   73   75 1   
    78   73   78 1   
    79   74   80 1   
    80   74   81 1   
    81   74   82 1   
    82   75   79 1   
    83   83   84 1   
    84   83   91 1   
    85   84   85 1   
    86   84   87 1   
    87   84   92 1   
    88   85   86 2   
    89   85  102 1   
    90   87   88 1   
    91   87   89 1   
    92   87   93 1   
    93   88   90 1   
    94   88   94 1   
    95   88   95 1   
    96   89   96 1   
    97   89   97 1   
    98   89   98 1   
    99   90   99 1   
   100   90  100 1   
   101   90  101 1   
   102  102  103 1   
   103  102  110 1   
   104  103  104 1   
   105  103  106 1   
   106  103  111 1   
   107  104  105 2   
   108  104  114 1   
   109  106  107 1   
   110  106  112 1   
   111  106  113 1   
   112  107  108 1   
   113  107  109 1   
   114  114  115 1   
   115  114  125 1   
   116  115  116 1   
   117  115  118 1   
   118  115  126 1   
   119  116  117 2   
   120  116  134 1   
   121  118  119 1   
   122  118  127 1   
   123  118  128 1   
   124  119  120 ar  
   125  119  121 ar  
   126  120  122 ar  
   127  120  129 1   
   128  121  123 ar  
   129  121  130 1   
   130  122  124 ar  
   131  122  131 1   
   132  123  124 ar  
   133  123  132 1   
   134  124  133 1   
   135  134  135 1   
   136  134  140 1   
   137  135  136 1   
   138  135  138 1   
   139  135  141 1   
   140  136  137 2   
   141  136  148 1   
   142  138  139 1   
   143  138  142 1   
   144  138  143 1   
   145  139  140 1   
   146  139  144 1   
   147  139  145 1   
   148  140  146 1   
   149  140  147 1   
   150  148  149 1   
   151  148  157 1   
   152  149  150 1   
   153  149  152 1   
   154  149  158 1   
   155  150  151 2   
   156  150  163 1   
   157  152  153 1   
   158  152  159 1   
   159  152  160 1   
   160  153  154 1   
   161  153  161 1   
   162  153  162 1   
   163  154  155 1   
   164  154  156 1   
   165  163  164 1   
   166  163  168 1   
   167  164  165 1   
   168  164  166 1   
   169  164  167 1   
   170  170  171 1   
   171  170  172 1   
   172  173  174 1   
   173  173  175 1   
   174  176  177 1   
   175  176  178 1   
   176  179  180 1   
   177  179  181 1   
@<TRIPOS>SUBSTRUCTURE
     1 MOL         1 TEMP              0 ****  ****    0 ROOT
