@<TRIPOS>MOLECULE
MOL
  186   183     1     0     0
SMALL
resp


@<TRIPOS>ATOM
      1 C1          4.6240    3.9840   -3.3460 c3        1 MOL     -0.226107
      2 C2          5.4070    3.1400   -2.3110 c         1 MOL      0.726604
      3 O1          4.9880    2.9530   -1.1430 o         1 MOL     -0.537812
      4 H1          3.5600    3.9580   -3.1040 hc        1 MOL      0.050984
      5 H2          4.9770    5.0150   -3.3170 hc        1 MOL      0.050984
      6 H3          4.7790    3.5740   -4.3440 hc        1 MOL      0.050984
      7 N1          6.5710    2.6230   -2.7270 n         1 MOL     -0.728966
      8 C3          7.3440    1.5170   -2.1640 c3        1 MOL      0.287555
      9 C4          6.4930    0.2900   -1.7590 c         1 MOL      0.122748
     10 O2          6.1590    0.2060   -0.5890 o         1 MOL     -0.130901
     11 C5          8.2200    1.9330   -1.0380 c3        1 MOL     -0.217763
     12 C6          7.7530    2.9820   -0.0820 c         1 MOL      0.750443
     13 O3          7.2950    2.5860    1.0470 o         1 MOL     -0.730177
     14 O4          7.9000    4.2160   -0.2150 o         1 MOL     -0.730177
     15 H4          6.7220    2.8420   -3.7040 hn        1 MOL      0.330495
     16 H5          8.0340    1.2360   -2.9530 h1        1 MOL      0.010448
     17 H6          9.2090    2.2470   -1.3600 hc        1 MOL      0.038317
     18 H7          8.4470    1.0610   -0.4290 hc        1 MOL      0.038317
     19 N2          6.0700   -0.5350   -2.7520 n         1 MOL     -0.337350
     20 C7          5.1960   -1.6400   -2.6330 c3        1 MOL      0.060795
     21 C8          5.8070   -2.8120   -1.7640 c         1 MOL      0.306974
     22 O5          5.9180   -3.9590   -2.1720 o         1 MOL     -0.543170
     23 C9          3.6770   -1.3160   -2.3630 c3        1 MOL      0.488874
     24 C10         2.7780   -2.5270   -2.7230 c3        1 MOL     -0.030540
     25 C11         3.2410    0.0200   -3.0560 c3        1 MOL     -0.033480
     26 C12         2.9790   -3.0900   -4.1600 c3        1 MOL     -0.423047
     27 H8          6.4520   -0.3690   -3.6710 hn        1 MOL      0.253899
     28 H9          5.2040   -1.9550   -3.6830 h1        1 MOL      0.004694
     29 H10         3.7200   -1.1520   -1.2920 hc        1 MOL     -0.264983
     30 H11         1.7250   -2.2940   -2.5530 hc        1 MOL      0.081453
     31 H12         3.1000   -3.3400   -2.0670 hc        1 MOL      0.081453
     32 H13         3.3680   -0.1380   -4.1250 hc        1 MOL     -0.041642
     33 H14         2.2110    0.2800   -2.7860 hc        1 MOL     -0.041642
     34 H15         3.8420    0.8770   -2.7510 hc        1 MOL     -0.041642
     35 H16         2.9740   -2.2040   -4.7920 hc        1 MOL      0.089957
     36 H17         3.8360   -3.7380   -4.3220 hc        1 MOL      0.089957
     37 H18         2.2330   -3.8690   -4.3310 hc        1 MOL      0.089957
     38 N3          6.0020   -2.6120   -0.4230 n         1 MOL      0.288203
     39 C13         6.8500   -3.5230    0.4870 c3        1 MOL     -0.157298
     40 C14         6.1560   -4.8350    0.8130 c         1 MOL      0.571230
     41 O6          6.8870   -5.8690    0.6640 o         1 MOL     -0.595265
     42 C15         7.2350   -2.8730    1.8280 c3        1 MOL     -0.030901
     43 C16         7.4340   -1.3680    1.8270 c         1 MOL      0.792482
     44 O7          6.6060   -0.5700    2.2680 o         1 MOL     -0.733794
     45 O8          8.5070   -1.0020    1.3510 o         1 MOL     -0.733794
     46 H19         5.6110   -1.7830   -0.0080 hn        1 MOL     -0.345164
     47 H20         7.8010   -3.7710    0.0220 h1        1 MOL      0.095788
     48 H21         8.1180   -3.2510    2.3250 hc        1 MOL     -0.001489
     49 H22         6.3970   -3.1320    2.4750 hc        1 MOL     -0.001489
     50 N4          4.8550   -4.9980    1.2370 n         1 MOL     -0.522842
     51 C17         3.8350   -3.9880    1.3300 c3        1 MOL      0.269664
     52 C18         2.6180   -4.3560    2.1610 c         1 MOL      0.533143
     53 O9          2.2980   -5.5630    2.2020 o         1 MOL     -0.607065
     54 H23         4.6240   -5.9510    1.4290 hn        1 MOL      0.268697
     55 H24         3.5180   -3.8230    0.2980 h1        1 MOL      0.013169
     56 H25         4.3080   -3.1090    1.7710 h1        1 MOL      0.013169
     57 N5          1.8900   -3.4680    2.7970 n         1 MOL     -0.492972
     58 C19         2.1110   -1.9890    2.8010 c3        1 MOL      0.191062
     59 C20         2.3380   -1.2770    1.4550 c         1 MOL      0.239537
     60 O10         3.5020   -0.9800    1.1880 o         1 MOL     -0.479434
     61 C21         3.2050   -1.7360    3.8500 c3        1 MOL     -0.327713
     62 C22         3.1380   -0.3120    4.2350 c         1 MOL      0.754433
     63 O11         3.7370    0.5330    3.5490 o         1 MOL     -0.690639
     64 O12         2.4640    0.0920    5.2070 o         1 MOL     -0.690639
     65 H26         1.1650   -3.7350    3.4610 hn        1 MOL      0.299665
     66 H27         1.2250   -1.5400    3.2380 h1        1 MOL      0.076606
     67 H28         4.1580   -2.1220    3.4730 hc        1 MOL      0.065737
     68 H29         2.9230   -2.3230    4.7340 hc        1 MOL      0.065737
     69 N6          1.3680   -0.9320    0.6280 n         1 MOL     -0.164798
     70 C23        -0.0470   -1.2080    0.8730 c3        1 MOL     -0.060736
     71 C24        -0.5870   -2.5230    0.2430 c         1 MOL      0.520417
     72 O13         0.1070   -3.1800   -0.5680 o         1 MOL     -0.552498
     73 H30         1.7050   -0.2680   -0.0550 hn        1 MOL      0.251678
     74 H31        -0.6340   -0.3460    0.5690 h1        1 MOL      0.063953
     75 H32        -0.2500   -1.2800    1.9480 h1        1 MOL      0.063953
     76 N7         -1.7880   -2.9250    0.7230 n         1 MOL     -0.435794
     77 C25        -2.4070   -4.1980    0.2640 c3        1 MOL     -0.091283
     78 C26        -3.1180   -4.1370   -1.1170 c         1 MOL      0.284715
     79 O14        -3.5740   -5.1540   -1.6540 o         1 MOL     -0.508251
     80 C27        -3.2800   -4.7510    1.4020 c3        1 MOL      0.021061
     81 C28        -4.4240   -3.8460    2.0000 c3        1 MOL     -0.245786
     82 C29        -5.4070   -3.3900    1.0050 c         1 MOL      0.480508
     83 N8         -6.2720   -4.2190    0.6500 n         1 MOL     -0.632900
     84 O15        -5.4540   -2.2830    0.5940 o         1 MOL     -0.495451
     85 H33        -2.2390   -2.3780    1.4320 hn        1 MOL      0.287153
     86 H34        -1.5950   -4.9110    0.1560 h1        1 MOL      0.178971
     87 H35        -2.6070   -4.9870    2.2190 hc        1 MOL      0.040566
     88 H36        -3.7470   -5.6850    1.1020 hc        1 MOL      0.040566
     89 H37        -3.9340   -2.9710    2.4250 hc        1 MOL      0.093151
     90 H38        -4.8900   -4.4860    2.7590 hc        1 MOL      0.093151
     91 H39        -6.4590   -5.0860    1.1310 hn        1 MOL      0.349781
     92 H40        -6.8580   -3.7570   -0.0330 hn        1 MOL      0.349781
     93 N9         -3.2470   -2.9260   -1.7080 n         1 MOL      0.181001
     94 C30        -3.7170   -2.6650   -3.0750 c3        1 MOL     -0.332588
     95 C31        -4.9470   -1.7770   -3.2730 c         1 MOL      0.488879
     96 O16        -5.2300   -1.3390   -4.4140 o         1 MOL     -0.547055
     97 C32        -2.4910   -2.0360   -3.8290 c3        1 MOL      0.387924
     98 C33        -1.3160   -2.9820   -3.9810 c3        1 MOL     -0.260033
     99 C34        -1.8890   -0.8160   -3.1390 c3        1 MOL     -0.260033
    100 H41        -2.8260   -2.1610   -1.2120 hn        1 MOL      0.123999
    101 H42        -3.9640   -3.6010   -3.5890 h1        1 MOL      0.129095
    102 H43        -2.7730   -1.7460   -4.8450 hc        1 MOL     -0.040066
    103 H44        -1.0440   -3.3650   -2.9980 hc        1 MOL      0.048205
    104 H45        -1.5890   -3.8690   -4.5530 hc        1 MOL      0.048205
    105 H46        -0.4560   -2.4580   -4.4160 hc        1 MOL      0.048205
    106 H47        -1.6910   -0.8980   -2.0690 hc        1 MOL      0.048205
    107 H48        -1.0230   -0.5980   -3.7630 hc        1 MOL      0.048205
    108 H49        -2.6360   -0.0430   -3.3050 hc        1 MOL      0.048205
    109 N10        -5.5640   -1.3580   -2.1430 n         1 MOL     -0.206203
    110 C35        -6.7990   -0.4850   -2.1250 c3        1 MOL     -0.095193
    111 C36        -6.6750    0.8100   -1.3250 c         1 MOL      0.604460
    112 O17        -7.5090    1.7170   -1.5260 o         1 MOL     -0.565149
    113 C37        -7.9270   -1.1980   -1.4930 c3        1 MOL     -0.106757
    114 C38        -8.2300   -2.5130   -2.1270 c         1 MOL      0.545218
    115 N11        -8.3210   -2.6740   -3.4420 n         1 MOL     -0.730015
    116 O18        -8.2820   -3.5160   -1.3960 o         1 MOL     -0.567940
    117 H50        -5.0700   -1.4890   -1.2780 hn        1 MOL      0.110481
    118 H51        -7.0790   -0.2090   -3.1420 h1        1 MOL      0.090754
    119 H52        -8.7520   -0.4830   -1.4960 hc        1 MOL      0.069513
    120 H53        -7.7250   -1.3850   -0.4370 hc        1 MOL      0.069513
    121 H54        -8.3350   -1.9220   -4.1260 hn        1 MOL      0.367126
    122 H55        -8.3810   -3.6470   -3.7010 hn        1 MOL      0.367126
    123 N12        -5.7810    0.9140   -0.3610 n         1 MOL     -0.485257
    124 C39        -5.5990    2.0290    0.5060 c3        1 MOL      0.457209
    125 C40        -4.2570    2.7640    0.3020 c         1 MOL      0.272513
    126 O19        -3.2360    2.1340   -0.0170 o         1 MOL     -0.482407
    127 C41        -5.8490    1.6720    1.9860 c3        1 MOL     -0.024139
    128 C42        -7.2260    1.0950    2.2130 ca        1 MOL     -0.147449
    129 C43        -7.4920   -0.2960    2.1910 ca        1 MOL      0.023039
    130 C44        -8.3070    1.9640    2.4230 ca        1 MOL      0.023039
    131 C45        -8.8180   -0.7580    2.3620 ca        1 MOL     -0.326290
    132 C46        -9.5280    1.5710    2.8120 ca        1 MOL     -0.326290
    133 C47        -9.8320    0.1710    2.6930 ca        1 MOL      0.343489
    134 O20       -11.1190   -0.3230    2.9140 oh        1 MOL     -0.508782
    135 H56        -5.2640    0.1090   -0.0560 hn        1 MOL      0.214374
    136 H57        -6.3960    2.7150    0.2090 h1        1 MOL     -0.049041
    137 H58        -5.6560    2.3770    2.7940 hc        1 MOL      0.052156
    138 H59        -5.2120    0.8520    2.2890 hc        1 MOL      0.052156
    139 H60        -6.6810   -1.0110    2.1430 ha        1 MOL      0.077476
    140 H61        -8.0180    3.0050    2.5680 ha        1 MOL      0.077476
    141 H62        -9.0880   -1.7960    2.3980 ha        1 MOL      0.154063
    142 H63       -10.3230    2.2580    3.0830 ha        1 MOL      0.154063
    143 H64       -11.0460   -1.2180    3.2530 ho        1 MOL      0.345380
    144 N13        -4.1900    4.0200    0.6630 n         1 MOL     -0.410110
    145 C48        -3.0490    4.8370    1.0560 c3        1 MOL      0.074663
    146 C49        -2.0230    5.0650   -0.0820 c         1 MOL      0.550946
    147 O21        -1.4660    6.1160   -0.1400 o         1 MOL     -0.546423
    148 C50        -2.3300    4.3040    2.3190 c3        1 MOL      0.048928
    149 C51        -3.1840    4.0870    3.5140 c3        1 MOL     -0.100535
    150 C52        -2.4330    3.3320    4.6950 c         1 MOL      0.655188
    151 O22        -1.1840    3.1450    4.6770 o         1 MOL     -0.706731
    152 O23        -3.1290    3.0840    5.7040 o         1 MOL     -0.706731
    153 H65        -5.0390    4.5330    0.8390 hn        1 MOL      0.266952
    154 H66        -3.4640    5.8110    1.3230 h1        1 MOL      0.023969
    155 H67        -1.4900    4.9420    2.5650 hc        1 MOL      0.060254
    156 H68        -2.0620    3.2600    2.1210 hc        1 MOL      0.060254
    157 H69        -4.1290    3.5590    3.4040 hc        1 MOL     -0.035517
    158 H70        -3.4470    5.0740    3.9130 hc        1 MOL     -0.035517
    159 N14        -1.7040    4.0970   -0.9810 n         1 MOL     -0.674181
    160 C53        -0.5400    4.2260   -1.8880 c3        1 MOL     -0.016109
    161 C54        -0.7450    4.9920   -3.1850 c         1 MOL      0.443962
    162 O24         0.1870    5.1060   -4.0420 o         1 MOL     -0.564942
    163 C55         0.0390    2.8130   -2.1000 c3        1 MOL     -0.094519
    164 C56         0.5320    1.9340   -0.8800 c3        1 MOL      0.433639
    165 C57         1.6250    2.5130    0.0210 c         1 MOL      0.444138
    166 O25         1.5300    3.6500    0.5610 o         1 MOL     -0.606437
    167 O26         2.6690    1.8470    0.1680 o         1 MOL     -0.606437
    168 H71        -2.0430    3.1490   -0.9020 hn        1 MOL      0.373073
    169 H72         0.2020    4.8420   -1.3770 h1        1 MOL      0.175378
    170 H73         0.9640    2.9650   -2.6620 hc        1 MOL      0.024238
    171 H74        -0.6220    2.1650   -2.6740 hc        1 MOL      0.024238
    172 H75         0.7220    0.9080   -1.2190 hc        1 MOL     -0.129232
    173 H76        -0.4150    1.8520   -0.3350 hc        1 MOL     -0.129232
    174 N15        -1.8730    5.6040   -3.2920 n         1 MOL     -0.191435
    175 C58        -2.3560    6.4870   -4.3940 c3        1 MOL     -0.242103
    176 H77        -3.4310    6.6350   -4.2950 h1        1 MOL      0.100059
    177 H78        -1.8500    7.4510   -4.3370 h1        1 MOL      0.100059
    178 H79        -2.1420    6.0190   -5.3560 h1        1 MOL      0.100059
    179 H80        -2.4510    5.5900   -2.4620 hn        1 MOL      0.245355
    180 Ca1         4.9410    1.4220    1.4080 Ca        1 MOL      1.668211
    181 O27         5.7500    2.7520    3.8060 oh        1 MOL     -0.777218
    182 H81         5.4840    3.6650    3.6920 ho        1 MOL      0.365194
    183 H82         5.0550    2.3650    4.3360 ho        1 MOL      0.365194
    184 O28         4.0650    3.9940    1.3180 oh        1 MOL     -0.777218
    185 H83         4.4320    4.7870    0.9210 ho        1 MOL      0.365194
    186 H84         3.1890    3.9260    0.9540 ho        1 MOL      0.365194
@<TRIPOS>BOND
     1    1    2 1   
     2    1    4 1   
     3    1    5 1   
     4    1    6 1   
     5    2    3 2   
     6    2    7 1   
     7    7    8 1   
     8    7   15 1   
     9    8    9 1   
    10    8   11 1   
    11    8   16 1   
    12    9   10 2   
    13    9   19 1   
    14   11   12 1   
    15   11   17 1   
    16   11   18 1   
    17   12   13 1   
    18   12   14 1   
    19   19   20 1   
    20   19   27 1   
    21   20   21 1   
    22   20   23 1   
    23   20   28 1   
    24   21   22 2   
    25   21   38 1   
    26   23   24 1   
    27   23   25 1   
    28   23   29 1   
    29   24   26 1   
    30   24   30 1   
    31   24   31 1   
    32   25   32 1   
    33   25   33 1   
    34   25   34 1   
    35   26   35 1   
    36   26   36 1   
    37   26   37 1   
    38   38   39 1   
    39   38   46 1   
    40   39   40 1   
    41   39   42 1   
    42   39   47 1   
    43   40   41 2   
    44   40   50 1   
    45   42   43 1   
    46   42   48 1   
    47   42   49 1   
    48   43   44 1   
    49   43   45 1   
    50   50   51 1   
    51   50   54 1   
    52   51   52 1   
    53   51   55 1   
    54   51   56 1   
    55   52   53 2   
    56   52   57 1   
    57   57   58 1   
    58   57   65 1   
    59   58   59 1   
    60   58   61 1   
    61   58   66 1   
    62   59   60 2   
    63   59   69 1   
    64   61   62 1   
    65   61   67 1   
    66   61   68 1   
    67   62   63 1   
    68   62   64 1   
    69   69   70 1   
    70   69   73 1   
    71   70   71 1   
    72   70   74 1   
    73   70   75 1   
    74   71   72 2   
    75   71   76 1   
    76   76   77 1   
    77   76   85 1   
    78   77   78 1   
    79   77   80 1   
    80   77   86 1   
    81   78   79 2   
    82   78   93 1   
    83   80   81 1   
    84   80   87 1   
    85   80   88 1   
    86   81   82 1   
    87   81   89 1   
    88   81   90 1   
    89   82   83 1   
    90   82   84 2   
    91   83   91 1   
    92   83   92 1   
    93   93   94 1   
    94   93  100 1   
    95   94   95 1   
    96   94   97 1   
    97   94  101 1   
    98   95   96 2   
    99   95  109 1   
   100   97   98 1   
   101   97   99 1   
   102   97  102 1   
   103   98  103 1   
   104   98  104 1   
   105   98  105 1   
   106   99  106 1   
   107   99  107 1   
   108   99  108 1   
   109  109  110 1   
   110  109  117 1   
   111  110  111 1   
   112  110  113 1   
   113  110  118 1   
   114  111  112 2   
   115  111  123 1   
   116  113  114 1   
   117  113  119 1   
   118  113  120 1   
   119  114  115 1   
   120  114  116 2   
   121  115  121 1   
   122  115  122 1   
   123  123  124 1   
   124  123  135 1   
   125  124  125 1   
   126  124  127 1   
   127  124  136 1   
   128  125  126 2   
   129  125  144 1   
   130  127  128 1   
   131  127  137 1   
   132  127  138 1   
   133  128  129 ar  
   134  128  130 ar  
   135  129  131 ar  
   136  129  139 1   
   137  130  132 ar  
   138  130  140 1   
   139  131  133 ar  
   140  131  141 1   
   141  132  133 ar  
   142  132  142 1   
   143  133  134 1   
   144  134  143 1   
   145  144  145 1   
   146  144  153 1   
   147  145  146 1   
   148  145  148 1   
   149  145  154 1   
   150  146  147 2   
   151  146  159 1   
   152  148  149 1   
   153  148  155 1   
   154  148  156 1   
   155  149  150 1   
   156  149  157 1   
   157  149  158 1   
   158  150  151 1   
   159  150  152 1   
   160  159  160 1   
   161  159  168 1   
   162  160  161 1   
   163  160  163 1   
   164  160  169 1   
   165  161  162 2   
   166  161  174 1   
   167  163  164 1   
   168  163  170 1   
   169  163  171 1   
   170  164  165 1   
   171  164  172 1   
   172  164  173 1   
   173  165  166 1   
   174  165  167 1   
   175  174  175 1   
   176  174  179 1   
   177  175  176 1   
   178  175  177 1   
   179  175  178 1   
   180  181  182 1   
   181  181  183 1   
   182  184  185 1   
   183  184  186 1   
@<TRIPOS>SUBSTRUCTURE
     1 MOL         1 TEMP              0 ****  ****    0 ROOT
