@<TRIPOS>MOLECULE
MOL
  178   175     1     0     0
SMALL
resp


@<TRIPOS>ATOM
      1 C1          3.0000   -0.9870    5.2630 c3        1 MOL     -0.295365
      2 C2          3.8950   -0.0490    4.4290 c         1 MOL      0.688113
      3 O1          3.4780    1.0940    4.1490 o         1 MOL     -0.531079
      4 H1          2.8130   -0.5390    6.2380 hc        1 MOL      0.074384
      5 H2          2.0530   -1.1420    4.7460 hc        1 MOL      0.074384
      6 H3          3.5020   -1.9460    5.3950 hc        1 MOL      0.074384
      7 N1          5.1700   -0.4220    4.1160 n         1 MOL     -0.761334
      8 C3          6.0560    0.2150    3.1920 c3        1 MOL      0.300563
      9 C4          6.8450   -0.7480    2.3190 c         1 MOL      0.576090
     10 O2          7.3510   -0.3610    1.2420 o         1 MOL     -0.490629
     11 C5          6.9930    1.2290    3.8860 c3        1 MOL     -0.136964
     12 C6          7.8110    2.1280    3.0050 c         1 MOL      0.682377
     13 O3          9.0470    2.1950    3.3390 o         1 MOL     -0.719934
     14 O4          7.2110    2.8220    2.1510 o         1 MOL     -0.719934
     15 H4          5.3700   -1.2660    4.6350 hn        1 MOL      0.338944
     16 H5          5.4640    0.7580    2.4660 h1        1 MOL      0.035773
     17 H6          7.7020    0.6080    4.4260 hc        1 MOL      0.001694
     18 H7          6.3860    1.8730    4.5350 hc        1 MOL      0.001694
     19 N2          6.7580   -2.0750    2.6260 n         1 MOL     -0.530721
     20 C7          7.3590   -3.1730    1.8380 c3        1 MOL      0.245854
     21 C8          7.0320   -3.1560    0.3630 c         1 MOL      0.535804
     22 O5          7.9730   -3.2320   -0.4590 o         1 MOL     -0.514412
     23 C9          8.8310   -3.1760    2.1650 c3        1 MOL     -0.567007
     24 H8          6.2820   -2.2140    3.5090 hn        1 MOL      0.249797
     25 H9          6.9180   -4.0920    2.2350 h1        1 MOL      0.013305
     26 H10         9.2190   -4.0840    1.7130 hc        1 MOL      0.154383
     27 H11         9.3700   -2.3400    1.7040 hc        1 MOL      0.154383
     28 H12         9.0660   -3.1080    3.2230 hc        1 MOL      0.154383
     29 N3          5.7400   -3.0700    0.0190 n         1 MOL     -0.652426
     30 C10         5.1730   -2.8390   -1.2950 c3        1 MOL      0.423481
     31 C11         5.5840   -1.5400   -2.0490 c         1 MOL      0.248915
     32 O6          5.5400   -1.4950   -3.2630 o         1 MOL     -0.486837
     33 C12         5.2060   -4.1300   -2.0890 c3        1 MOL     -0.281461
     34 C13         3.9090   -4.4350   -2.9460 c         1 MOL      0.658162
     35 O7          3.8450   -5.6020   -3.5220 o         1 MOL     -0.699589
     36 O8          2.9710   -3.5960   -3.0350 o         1 MOL     -0.699589
     37 H13         5.1190   -3.0880    0.8090 hn        1 MOL      0.309179
     38 H14         4.1160   -2.6830   -1.0730 h1        1 MOL      0.012947
     39 H15         5.3500   -4.9800   -1.4250 hc        1 MOL      0.059256
     40 H16         6.0960   -4.1390   -2.7300 hc        1 MOL      0.059256
     41 N4          6.0590   -0.5810   -1.3160 n         1 MOL      0.022552
     42 C14         6.4170    0.7740   -1.8490 c3        1 MOL     -0.054593
     43 C15         5.3130    1.6010   -2.4970 c         1 MOL      0.512831
     44 O9          5.6530    2.5780   -3.1470 o         1 MOL     -0.527042
     45 H17         6.1860   -0.7880   -0.3380 hn        1 MOL      0.031158
     46 H18         7.2380    0.6820   -2.5600 h1        1 MOL      0.077596
     47 H19         6.8070    1.3820   -1.0280 h1        1 MOL      0.077596
     48 N5          4.0050    1.2010   -2.3580 n         1 MOL     -0.366287
     49 C16         2.9450    1.5500   -3.3670 c3        1 MOL      0.021287
     50 C17         2.7740    3.0320   -3.6470 c         1 MOL      0.495577
     51 O10         2.6480    3.4220   -4.7860 o         1 MOL     -0.551187
     52 C18         1.6440    0.8700   -2.9790 c3        1 MOL     -0.589176
     53 C19         2.0250   -0.5800   -2.9310 c         1 MOL      0.689596
     54 N6          1.9650   -1.1710   -4.1280 n         1 MOL     -0.669228
     55 O11         2.2200   -1.2320   -1.8680 o         1 MOL     -0.608796
     56 H20         3.8250    0.4950   -1.6580 hn        1 MOL      0.211242
     57 H21         3.2870    1.0960   -4.2980 h1        1 MOL      0.106612
     58 H22         0.8910    0.9880   -3.7620 hc        1 MOL      0.206751
     59 H23         1.3030    1.1830   -1.9950 hc        1 MOL      0.206751
     60 H24         1.8510   -0.5780   -4.9440 hn        1 MOL      0.331100
     61 H25         2.1720   -2.1580   -4.1350 hn        1 MOL      0.331100
     62 N7          2.8200    3.8940   -2.6730 n         1 MOL     -0.108253
     63 C20         2.4190    5.2560   -2.6790 c3        1 MOL     -0.335243
     64 C21         0.9870    5.4760   -2.3110 c         1 MOL      0.580701
     65 O12         0.0530    4.8280   -2.7750 o         1 MOL     -0.454268
     66 H26         3.0060    3.4680   -1.7810 hn        1 MOL      0.196334
     67 H27         2.7010    5.5990   -3.6750 h1        1 MOL      0.127608
     68 H28         3.0380    5.7600   -1.9320 h1        1 MOL      0.127608
     69 N8          0.7060    6.5680   -1.6010 n         1 MOL     -0.257563
     70 C22        -0.6120    7.0460   -1.2340 c3        1 MOL     -0.580770
     71 C23        -1.4880    6.1330   -0.2990 c         1 MOL      0.645218
     72 O13        -2.6930    6.2310   -0.4590 o         1 MOL     -0.570001
     73 C24        -0.5050    8.4770   -0.5700 c3        1 MOL      0.573475
     74 C25         0.1490    8.3100    0.8560 c3        1 MOL     -0.367493
     75 O14         0.2940    9.3720   -1.2610 oh        1 MOL     -0.618008
     76 H29         1.4540    7.1130   -1.1950 hn        1 MOL      0.196587
     77 H30        -1.1010    7.2180   -2.1930 h1        1 MOL      0.218127
     78 H31        -1.4820    8.9350   -0.4120 h1        1 MOL      0.014222
     79 H32         1.1620    9.0060   -1.0610 ho        1 MOL      0.375714
     80 H33        -0.6790    8.3610    1.5620 hc        1 MOL      0.077429
     81 H34         0.7990    7.4480    0.9590 hc        1 MOL      0.077429
     82 H35         0.7190    9.2370    0.9720 hc        1 MOL      0.077429
     83 N9         -0.8870    5.2730    0.5130 n         1 MOL     -0.165824
     84 C26        -1.6300    4.2040    1.2180 c3        1 MOL     -0.360628
     85 C27        -1.4880    2.9410    0.3780 c         1 MOL      0.724443
     86 O15        -0.5610    2.7520   -0.4190 o         1 MOL     -0.584092
     87 C28        -1.2510    4.1070    2.7050 c3        1 MOL      0.026619
     88 C29         0.0670    3.5360    3.0740 c3        1 MOL     -0.046375
     89 C30        -1.5130    5.4410    3.4210 c3        1 MOL     -0.082605
     90 C31         0.4450    3.3820    4.5400 c3        1 MOL     -0.352067
     91 H36         0.0700    5.3710    0.8250 hn        1 MOL      0.203023
     92 H37        -2.6940    4.4170    1.1270 h1        1 MOL      0.133282
     93 H38        -1.9760    3.4220    3.1360 hc        1 MOL      0.025153
     94 H39         0.9080    4.0610    2.6360 hc        1 MOL      0.098164
     95 H40         0.1750    2.5360    2.6590 hc        1 MOL      0.098164
     96 H41        -0.8890    6.2370    3.0280 hc        1 MOL      0.023623
     97 H42        -2.5310    5.7590    3.2030 hc        1 MOL      0.023623
     98 H43        -1.4430    5.3440    4.4950 hc        1 MOL      0.023623
     99 H44         0.5540    4.3670    5.0050 hc        1 MOL      0.101839
    100 H45        -0.3260    2.7290    4.9460 hc        1 MOL      0.101839
    101 H46         1.3820    2.8240    4.4910 hc        1 MOL      0.101839
    102 N10        -2.3870    1.9880    0.6360 n         1 MOL     -0.511456
    103 C32        -2.3990    0.6310    0.0910 c3        1 MOL      0.141064
    104 C33        -3.8010    0.0150   -0.1660 c         1 MOL      0.507446
    105 O16        -3.9950   -1.1820   -0.3310 o         1 MOL     -0.504644
    106 C34        -1.4650   -0.2360    0.9800 c3        1 MOL     -0.292106
    107 C35        -0.7390   -1.3900    0.2660 c         1 MOL      0.810276
    108 O17         0.2010   -1.9990    0.8030 o         1 MOL     -0.753240
    109 O18        -0.9500   -1.6330   -0.9400 o         1 MOL     -0.753240
    110 H47        -2.9900    2.2770    1.3900 hn        1 MOL      0.269011
    111 H48        -2.0210    0.7900   -0.9140 h1        1 MOL      0.083745
    112 H49        -2.1460   -0.6020    1.7480 hc        1 MOL      0.083160
    113 H50        -0.6630    0.3950    1.3650 hc        1 MOL      0.083160
    114 N11        -4.7310    0.9370   -0.3240 n         1 MOL     -0.410062
    115 C36        -6.1420    0.5950   -0.6250 c3        1 MOL      0.283504
    116 C37        -6.7120   -0.5000    0.3660 c         1 MOL      0.261222
    117 O19        -6.5810   -0.3730    1.6080 o         1 MOL     -0.505187
    118 C38        -6.9850    1.8410   -0.7720 c3        1 MOL     -0.334999
    119 C39        -8.4590    1.5590   -0.9850 ca        1 MOL      0.224631
    120 C40        -8.9830    1.1510   -2.2410 ca        1 MOL     -0.299267
    121 C41        -9.3640    1.4900    0.1080 ca        1 MOL     -0.299267
    122 C42       -10.3470    0.8840   -2.3400 ca        1 MOL      0.004276
    123 C43       -10.7810    1.0950    0.0280 ca        1 MOL      0.004276
    124 C44       -11.2780    0.8250   -1.2960 ca        1 MOL     -0.234290
    125 H51        -4.6070    1.9270   -0.2040 hn        1 MOL      0.217100
    126 H52        -6.0060    0.1040   -1.5980 h1        1 MOL      0.009327
    127 H53        -6.7460    2.3780   -1.6950 hc        1 MOL      0.126971
    128 H54        -6.8730    2.4280    0.1340 hc        1 MOL      0.126971
    129 H55        -8.3940    1.0370   -3.1400 ha        1 MOL      0.148551
    130 H56        -8.9640    1.6640    1.0970 ha        1 MOL      0.148551
    131 H57       -10.7860    0.5780   -3.2860 ha        1 MOL      0.088575
    132 H58       -11.4410    1.0650    0.8800 ha        1 MOL      0.088575
    133 H59       -12.3300    0.6310   -1.4610 ha        1 MOL      0.133352
    134 N12        -7.2340   -1.6060   -0.1330 n         1 MOL      0.051818
    135 C45        -7.6420   -2.7680    0.6560 c3        1 MOL      0.071615
    136 C46        -6.6020   -3.3840    1.6370 c         1 MOL      0.258696
    137 O20        -7.0160   -3.9960    2.5930 o         1 MOL     -0.498328
    138 C47        -8.0690   -3.8660   -0.3040 c3        1 MOL     -0.168813
    139 C48        -7.3190   -3.6020   -1.5660 c3        1 MOL      0.080034
    140 C49        -7.2020   -2.0610   -1.5420 c3        1 MOL     -0.281487
    141 H60        -8.5770   -2.5870    1.1850 h1        1 MOL      0.055377
    142 H61        -7.8200   -4.8540    0.0850 hc        1 MOL      0.070176
    143 H62        -9.1140   -3.8140   -0.6280 hc        1 MOL      0.070176
    144 H63        -6.2920   -3.9620   -1.5670 hc        1 MOL      0.016573
    145 H64        -7.8380   -4.0660   -2.4020 hc        1 MOL      0.016573
    146 H65        -6.2360   -1.7720   -1.9740 h1        1 MOL      0.098626
    147 H66        -8.1020   -1.7350   -2.0610 h1        1 MOL      0.098626
    148 N13        -5.2610   -3.2660    1.4390 n         1 MOL     -0.161582
    149 C50        -4.2290   -3.6710    2.4100 c3        1 MOL     -0.245958
    150 C51        -4.0680   -2.6080    3.5840 c         1 MOL      0.496375
    151 O21        -3.4080   -2.8850    4.5500 o         1 MOL     -0.564810
    152 C52        -2.9150   -3.9340    1.7290 c3        1 MOL      0.008854
    153 C53        -3.0720   -4.9550    0.6680 c3        1 MOL      0.040183
    154 C54        -1.7580   -4.9600   -0.1480 c         1 MOL      0.533111
    155 O22        -0.6890   -4.9590    0.4850 o         1 MOL     -0.725508
    156 O23        -1.7810   -4.8120   -1.3450 o         1 MOL     -0.725508
    157 H67        -5.0300   -2.7910    0.5800 hn        1 MOL      0.325355
    158 H68        -4.5870   -4.5410    2.9700 h1        1 MOL      0.139287
    159 H69        -2.1800   -4.3980    2.3930 hc        1 MOL      0.056732
    160 H70        -2.5360   -3.0260    1.2650 hc        1 MOL      0.056732
    161 H71        -3.9100   -4.8030   -0.0200 hc        1 MOL     -0.023226
    162 H72        -3.2120   -5.9680    1.0620 hc        1 MOL     -0.023226
    163 N14        -4.6870   -1.4670    3.4720 n         1 MOL     -0.112247
    164 C55        -4.7560   -0.3340    4.4350 c3        1 MOL     -0.242432
    165 H73        -4.3940   -0.6630    5.4090 h1        1 MOL      0.095329
    166 H74        -4.1360    0.4870    4.0750 h1        1 MOL      0.095329
    167 H75        -5.7890    0.0040    4.5260 h1        1 MOL      0.095329
    168 H76        -5.0360   -1.2910    2.5360 hn        1 MOL      0.149619
    169 Ca1         0.7800   -3.6630   -1.4370 Ca        1 MOL      1.737837
    170 O24        -0.1370   -3.2090   -3.8570 oh        1 MOL     -0.766361
    171 H77        -0.3580   -2.3510   -4.2150 ho        1 MOL      0.387046
    172 H78        -0.6260   -3.8240   -4.4050 ho        1 MOL      0.387046
    173 O25         0.9180   -6.0980   -2.5840 oh        1 MOL     -0.766361
    174 H79         1.5070   -6.6190   -2.0480 ho        1 MOL      0.387046
    175 H80         0.4350   -6.7280   -3.1120 ho        1 MOL      0.387046
    176 O26         2.5420   -4.9130    0.1720 oh        1 MOL     -0.766361
    177 H81         2.7320   -5.7280   -0.2990 ho        1 MOL      0.387046
    178 H82         3.0900   -4.9550    0.9600 ho        1 MOL      0.387046
@<TRIPOS>BOND
     1    1    2 1   
     2    1    4 1   
     3    1    5 1   
     4    1    6 1   
     5    2    3 2   
     6    2    7 1   
     7    7    8 1   
     8    7   15 1   
     9    8    9 1   
    10    8   11 1   
    11    8   16 1   
    12    9   10 2   
    13    9   19 1   
    14   11   12 1   
    15   11   17 1   
    16   11   18 1   
    17   12   13 1   
    18   12   14 1   
    19   19   20 1   
    20   19   24 1   
    21   20   21 1   
    22   20   23 1   
    23   20   25 1   
    24   21   22 2   
    25   21   29 1   
    26   23   26 1   
    27   23   27 1   
    28   23   28 1   
    29   29   30 1   
    30   29   37 1   
    31   30   31 1   
    32   30   33 1   
    33   30   38 1   
    34   31   32 2   
    35   31   41 1   
    36   33   34 1   
    37   33   39 1   
    38   33   40 1   
    39   34   35 1   
    40   34   36 1   
    41   41   42 1   
    42   41   45 1   
    43   42   43 1   
    44   42   46 1   
    45   42   47 1   
    46   43   44 2   
    47   43   48 1   
    48   48   49 1   
    49   48   56 1   
    50   49   50 1   
    51   49   52 1   
    52   49   57 1   
    53   50   51 2   
    54   50   62 1   
    55   52   53 1   
    56   52   58 1   
    57   52   59 1   
    58   53   54 1   
    59   53   55 2   
    60   54   60 1   
    61   54   61 1   
    62   62   63 1   
    63   62   66 1   
    64   63   64 1   
    65   63   67 1   
    66   63   68 1   
    67   64   65 2   
    68   64   69 1   
    69   69   70 1   
    70   69   76 1   
    71   70   71 1   
    72   70   73 1   
    73   70   77 1   
    74   71   72 2   
    75   71   83 1   
    76   73   74 1   
    77   73   75 1   
    78   73   78 1   
    79   74   80 1   
    80   74   81 1   
    81   74   82 1   
    82   75   79 1   
    83   83   84 1   
    84   83   91 1   
    85   84   85 1   
    86   84   87 1   
    87   84   92 1   
    88   85   86 2   
    89   85  102 1   
    90   87   88 1   
    91   87   89 1   
    92   87   93 1   
    93   88   90 1   
    94   88   94 1   
    95   88   95 1   
    96   89   96 1   
    97   89   97 1   
    98   89   98 1   
    99   90   99 1   
   100   90  100 1   
   101   90  101 1   
   102  102  103 1   
   103  102  110 1   
   104  103  104 1   
   105  103  106 1   
   106  103  111 1   
   107  104  105 2   
   108  104  114 1   
   109  106  107 1   
   110  106  112 1   
   111  106  113 1   
   112  107  108 1   
   113  107  109 1   
   114  114  115 1   
   115  114  125 1   
   116  115  116 1   
   117  115  118 1   
   118  115  126 1   
   119  116  117 2   
   120  116  134 1   
   121  118  119 1   
   122  118  127 1   
   123  118  128 1   
   124  119  120 ar  
   125  119  121 ar  
   126  120  122 ar  
   127  120  129 1   
   128  121  123 ar  
   129  121  130 1   
   130  122  124 ar  
   131  122  131 1   
   132  123  124 ar  
   133  123  132 1   
   134  124  133 1   
   135  134  135 1   
   136  134  140 1   
   137  135  136 1   
   138  135  138 1   
   139  135  141 1   
   140  136  137 2   
   141  136  148 1   
   142  138  139 1   
   143  138  142 1   
   144  138  143 1   
   145  139  140 1   
   146  139  144 1   
   147  139  145 1   
   148  140  146 1   
   149  140  147 1   
   150  148  149 1   
   151  148  157 1   
   152  149  150 1   
   153  149  152 1   
   154  149  158 1   
   155  150  151 2   
   156  150  163 1   
   157  152  153 1   
   158  152  159 1   
   159  152  160 1   
   160  153  154 1   
   161  153  161 1   
   162  153  162 1   
   163  154  155 1   
   164  154  156 1   
   165  163  164 1   
   166  163  168 1   
   167  164  165 1   
   168  164  166 1   
   169  164  167 1   
   170  170  171 1   
   171  170  172 1   
   172  173  174 1   
   173  173  175 1   
   174  176  177 1   
   175  176  178 1   
@<TRIPOS>SUBSTRUCTURE
     1 MOL         1 TEMP              0 ****  ****    0 ROOT
