@<TRIPOS>MOLECULE
MOL
  188   182     1     0     0
SMALL
resp


@<TRIPOS>ATOM
      1 C1          1.0580    1.3790    2.6300 c3        1 MOL     -0.413371
      2 C2          2.3230    1.0920    1.8210 c         1 MOL      0.816548
      3 O1          2.5170    1.7330    0.8020 o         1 MOL     -0.642231
      4 H1          0.9450    0.6230    3.4070 hc        1 MOL      0.106476
      5 H2          1.1370    2.3640    3.0900 hc        1 MOL      0.106476
      6 H3          0.1910    1.3550    1.9690 hc        1 MOL      0.106476
      7 N1          3.0750    0.0610    2.1490 n         1 MOL     -0.553412
      8 C3          4.3440   -0.3710    1.4120 c3        1 MOL     -0.176850
      9 C4          4.5760   -1.8520    1.3350 c         1 MOL      0.777602
     10 O2          5.6470   -2.2070    0.9220 o         1 MOL     -0.464056
     11 C5          5.5010    0.4360    2.0460 c3        1 MOL     -0.183207
     12 C6          6.0330   -0.0170    3.4590 c         1 MOL      0.601684
     13 O3          7.0750    0.5480    3.8580 o         1 MOL     -0.649660
     14 O4          5.4170   -0.8970    4.0880 o         1 MOL     -0.649660
     15 H4          2.7740   -0.4850    2.9430 hn        1 MOL      0.264682
     16 H5          4.2070    0.0450    0.4090 h1        1 MOL      0.159012
     17 H6          5.1760    1.4690    2.1640 hc        1 MOL      0.101040
     18 H7          6.3330    0.3140    1.3540 hc        1 MOL      0.101040
     19 N2          3.6840   -2.8130    1.6620 n         1 MOL     -0.718635
     20 C7          3.7960   -4.3460    1.5080 c3        1 MOL      0.009850
     21 C8          4.3600   -4.7340    0.1530 c         1 MOL      0.449488
     22 O5          5.0300   -5.7420    0.0170 o         1 MOL     -0.543042
     23 C9          4.6890   -4.8710    2.5890 c3        1 MOL     -0.119080
     24 C10         4.2380   -4.2630    3.9670 c3        1 MOL      0.353423
     25 C11         5.1310   -4.8140    5.1220 c3        1 MOL     -0.278278
     26 C12         5.0650   -3.9950    6.3940 c3        1 MOL      0.319389
     27 N3          5.6800   -2.6540    6.3040 n4        1 MOL     -0.394691
     28 H8          2.7840   -2.5410    2.0370 hn        1 MOL      0.338677
     29 H9          2.8620   -4.9000    1.5840 h1        1 MOL      0.081616
     30 H10         5.7300   -4.5710    2.4030 hc        1 MOL      0.060321
     31 H11         4.7320   -5.9560    2.6980 hc        1 MOL      0.060321
     32 H12         3.1900   -4.5060    4.1330 hc        1 MOL     -0.086106
     33 H13         4.3960   -3.1880    3.9910 hc        1 MOL     -0.086106
     34 H14         6.1430   -4.8110    4.7290 hc        1 MOL      0.064941
     35 H15         4.7140   -5.8240    5.1870 hc        1 MOL      0.064941
     36 H16         5.4590   -4.5660    7.2220 hx        1 MOL     -0.017848
     37 H17         4.0180   -3.7520    6.6190 hx        1 MOL     -0.017848
     38 H18         5.2240   -2.0240    5.6620 hn        1 MOL      0.316482
     39 H19         5.6630   -2.2630    7.2330 hn        1 MOL      0.316482
     40 H20         6.6200   -2.8150    5.9680 hn        1 MOL      0.316482
     41 N4          4.1140   -3.8690   -0.7870 n         1 MOL     -0.154995
     42 C13         4.4430   -3.9400   -2.1890 c3        1 MOL      0.261073
     43 C14         4.6680   -2.5510   -2.8620 c         1 MOL      0.440343
     44 O6          3.8760   -2.1560   -3.7540 o         1 MOL     -0.523358
     45 C15         3.4070   -4.8390   -2.8820 c3        1 MOL     -0.461743
     46 C16         1.9200   -4.6890   -2.5560 c         1 MOL      0.855297
     47 O7          1.4380   -3.6820   -1.9440 o         1 MOL     -0.803312
     48 O8          1.1250   -5.6270   -2.7900 o         1 MOL     -0.803312
     49 H21         3.6510   -3.0370   -0.4650 hn        1 MOL      0.207784
     50 H22         5.3780   -4.5120   -2.2310 h1        1 MOL      0.003588
     51 H23         3.7690   -5.8250   -2.5870 hc        1 MOL      0.108712
     52 H24         3.4780   -4.7370   -3.9630 hc        1 MOL      0.108712
     53 N5          5.5310   -1.7980   -2.2320 n         1 MOL     -0.359883
     54 C17         5.7770   -0.3350   -2.4450 c3        1 MOL      0.005429
     55 C18         6.9820    0.1550   -1.5320 c         1 MOL      0.530510
     56 O9          7.7400   -0.7010   -0.9970 o         1 MOL     -0.507082
     57 H25         5.8980   -2.0880   -1.3440 hn        1 MOL      0.156587
     58 H26         4.9150    0.1990   -2.0380 h1        1 MOL      0.083673
     59 H27         5.9670    0.0140   -3.4590 h1        1 MOL      0.083673
     60 N6          7.3210    1.4330   -1.4310 n         1 MOL     -0.608712
     61 C19         6.6090    2.6590   -1.6610 c3        1 MOL      0.526336
     62 C20         6.4210    3.4940   -0.3760 c         1 MOL      0.337882
     63 O10         7.3870    3.6140    0.3940 o         1 MOL     -0.507423
     64 C21         7.3850    3.4500   -2.6820 c3        1 MOL     -0.562385
     65 C22         7.7240    2.7970   -3.9930 c         1 MOL      0.789523
     66 N7          8.9900    2.8000   -4.2910 n         1 MOL     -0.798623
     67 O11         6.8660    2.3960   -4.7630 o         1 MOL     -0.568087
     68 H28         8.2330    1.4970   -0.9920 hn        1 MOL      0.330254
     69 H29         5.6550    2.3820   -2.1110 h1        1 MOL     -0.052374
     70 H30         8.2870    3.6140   -2.0970 hc        1 MOL      0.122076
     71 H31         6.7780    4.3470   -2.8170 hc        1 MOL      0.122076
     72 H32         9.5810    3.0880   -3.5300 hn        1 MOL      0.372252
     73 H33         9.3510    2.7740   -5.2400 hn        1 MOL      0.372252
     74 N8          5.3060    4.1930   -0.1240 n         1 MOL     -0.334811
     75 C23         4.0090    4.1880   -0.8620 c3        1 MOL     -0.282368
     76 C24         2.9580    5.1650   -0.3060 c         1 MOL      0.762508
     77 O12         3.3540    6.1510    0.3070 o         1 MOL     -0.564424
     78 H34         5.3530    4.6980    0.7450 hn        1 MOL      0.298466
     79 H35         3.6510    3.1580   -0.9580 h1        1 MOL      0.137807
     80 H36         4.2180    4.4820   -1.8920 h1        1 MOL      0.137807
     81 N9          1.7200    4.8640   -0.6550 n         1 MOL     -0.599226
     82 C25         0.5650    5.6350   -0.1820 c3        1 MOL      0.107320
     83 C26        -0.6890    4.6660   -0.1130 c         1 MOL      0.624645
     84 O13        -0.7610    3.5820   -0.7270 o         1 MOL     -0.524408
     85 C27         0.2430    6.7590   -1.1070 c3        1 MOL     -0.082929
     86 C28        -0.8700    7.6730   -0.6210 ca        1 MOL     -0.017406
     87 C29        -2.1580    7.6880   -1.1560 ca        1 MOL     -0.066806
     88 C30        -0.6730    8.5110    0.5270 ca        1 MOL     -0.066806
     89 C31        -3.1100    8.6160   -0.7020 ca        1 MOL     -0.347474
     90 C32        -1.6420    9.3660    1.0580 ca        1 MOL     -0.347474
     91 C33        -2.9360    9.4510    0.4070 ca        1 MOL      0.411325
     92 O14        -3.9230   10.2400    0.8540 oh        1 MOL     -0.495673
     93 H37         1.5600    4.0670   -1.2630 hn        1 MOL      0.311673
     94 H38         0.7550    5.9380    0.8460 h1        1 MOL      0.051387
     95 H39         0.1370    6.4570   -2.1510 hc        1 MOL      0.064340
     96 H40         1.1730    7.3190   -1.0960 hc        1 MOL      0.064340
     97 H41        -2.3850    7.1720   -2.0790 ha        1 MOL      0.124477
     98 H42         0.2460    8.5050    1.1000 ha        1 MOL      0.124477
     99 H43        -4.0300    8.8540   -1.2250 ha        1 MOL      0.156838
    100 H44        -1.4900   10.0670    1.8760 ha        1 MOL      0.156838
    101 H45        -3.6880   10.6380    1.7000 ho        1 MOL      0.373317
    102 N10        -1.7910    5.0820    0.5030 n         1 MOL     -0.533082
    103 C34        -2.9990    4.2000    0.8180 c3        1 MOL     -0.054613
    104 C35        -3.9210    3.9700   -0.4480 c         1 MOL      0.553915
    105 O15        -3.9220    4.8190   -1.3740 o         1 MOL     -0.475777
    106 C36        -3.7400    4.8030    2.0800 c3        1 MOL      0.214820
    107 C37        -2.9050    4.7990    3.3880 c3        1 MOL     -0.035697
    108 C38        -4.1120    6.2490    1.8440 c3        1 MOL     -0.074312
    109 C39        -3.8360    4.8840    4.5990 c3        1 MOL     -0.189647
    110 H46        -1.8610    6.0570    0.7590 hn        1 MOL      0.232269
    111 H47        -2.6300    3.2540    1.1950 h1        1 MOL      0.063170
    112 H48        -4.5940    4.1470    2.2610 hc        1 MOL     -0.016062
    113 H49        -2.2640    5.6820    3.4120 hc        1 MOL      0.023378
    114 H50        -2.3540    3.8600    3.4480 hc        1 MOL      0.023378
    115 H51        -4.7010    6.6210    2.6770 hc        1 MOL      0.019792
    116 H52        -3.2420    6.9040    1.6960 hc        1 MOL      0.019792
    117 H53        -4.7900    6.3290    0.9890 hc        1 MOL      0.019792
    118 H54        -3.3180    4.8800    5.5540 hc        1 MOL      0.044920
    119 H55        -4.6090    5.6420    4.5630 hc        1 MOL      0.044920
    120 H56        -4.3170    3.9020    4.7040 hc        1 MOL      0.044920
    121 N11        -4.6810    2.8840   -0.4500 n         1 MOL     -0.376705
    122 C40        -5.6630    2.4210   -1.4080 c3        1 MOL     -0.109110
    123 C41        -5.5890    0.9000   -1.6110 c         1 MOL      0.765333
    124 O16        -5.0060    0.1660   -0.7640 o         1 MOL     -0.580005
    125 C42        -7.0990    2.8550   -1.0150 c3        1 MOL      0.150982
    126 O17        -7.5020    2.2050    0.0740 oh        1 MOL     -0.544669
    127 H57        -4.6400    2.2700    0.3500 hn        1 MOL      0.281489
    128 H58        -5.3290    2.8500   -2.3620 h1        1 MOL      0.072392
    129 H59        -7.7670    2.6510   -1.8530 h1        1 MOL      0.003453
    130 H60        -7.1720    3.9180   -0.7880 h1        1 MOL      0.003453
    131 H61        -8.4470    2.3880    0.0640 ho        1 MOL      0.406633
    132 N12        -6.2460    0.5220   -2.7330 n         1 MOL     -0.583159
    133 C43        -6.3540   -0.8860   -3.1750 c3        1 MOL      0.132188
    134 C44        -6.7920   -1.9540   -2.1040 c         1 MOL      0.440793
    135 O18        -6.1090   -2.9520   -1.8230 o         1 MOL     -0.448453
    136 C45        -5.0030   -1.1940   -3.8620 c3        1 MOL     -0.257178
    137 H62        -6.7140    1.2760   -3.2100 hn        1 MOL      0.329335
    138 H63        -7.0690   -0.9070   -3.9930 h1        1 MOL      0.092141
    139 H64        -4.6650   -0.3900   -4.5140 hc        1 MOL      0.088847
    140 H65        -4.1480   -1.3600   -3.2080 hc        1 MOL      0.088847
    141 H66        -5.1300   -2.0500   -4.5160 hc        1 MOL      0.088847
    142 N13        -7.9750   -1.7050   -1.4540 n         1 MOL     -0.706814
    143 C46        -8.5660   -2.5700   -0.4600 c3        1 MOL      0.561555
    144 C47        -7.6890   -3.1140    0.6900 c         1 MOL      0.259810
    145 O19        -7.9970   -4.2330    1.1300 o         1 MOL     -0.408076
    146 C48        -9.4780   -3.5920   -1.2080 c3        1 MOL     -0.267907
    147 H67        -8.5410   -0.9220   -1.7260 hn        1 MOL      0.334470
    148 H68        -9.3060   -1.9400    0.0390 h1        1 MOL     -0.037270
    149 H69        -9.8920   -4.1130   -0.3480 hc        1 MOL      0.064118
    150 H70       -10.2670   -3.1460   -1.8080 hc        1 MOL      0.064118
    151 H71        -8.8950   -4.3600   -1.7240 hc        1 MOL      0.064118
    152 N14        -6.6290   -2.3380    1.0430 n         1 MOL     -0.453290
    153 C49        -5.3930   -3.0650    1.5650 c3        1 MOL     -0.020275
    154 C50        -5.6980   -3.7770    2.9170 c         1 MOL      0.452873
    155 O20        -5.2640   -4.8840    3.2690 o         1 MOL     -0.498686
    156 C51        -4.1570   -2.0920    1.5850 c3        1 MOL     -0.073959
    157 C52        -2.7430   -2.5780    1.7870 c3        1 MOL      0.127451
    158 C53        -2.1610   -3.2510    0.5990 c         1 MOL      0.794520
    159 O21        -2.3480   -4.4630    0.4180 o         1 MOL     -0.796839
    160 O22        -1.5050   -2.5760   -0.2190 o         1 MOL     -0.796839
    161 H72        -6.4900   -1.4600    0.5580 hn        1 MOL      0.265416
    162 H73        -5.0670   -3.7970    0.8400 h1        1 MOL      0.142452
    163 H74        -4.3250   -1.3970    2.4080 hc        1 MOL      0.058531
    164 H75        -4.1880   -1.5020    0.6670 hc        1 MOL      0.058531
    165 H76        -2.6740   -3.3130    2.5950 hc        1 MOL     -0.073674
    166 H77        -2.0790   -1.7440    2.0160 hc        1 MOL     -0.073674
    167 N15        -6.5380   -3.0670    3.7220 n         1 MOL     -0.241987
    168 C54        -7.1550   -3.5520    5.0130 c3        1 MOL     -0.364364
    169 H78        -6.4500   -4.2050    5.5290 h1        1 MOL      0.144581
    170 H79        -7.3910   -2.6980    5.6470 h1        1 MOL      0.144581
    171 H80        -8.0680   -4.1060    4.7940 h1        1 MOL      0.144581
    172 H81        -6.7440   -2.1200    3.4620 hn        1 MOL      0.223239
    173 Ca1        -1.0720   -4.7960   -1.8130 Ca        1 MOL      1.771517
    174 O23        -3.6900   -4.1510   -2.6790 oh        1 MOL     -0.848996
    175 H82        -3.8630   -4.1080   -3.6280 ho        1 MOL      0.422697
    176 H83        -4.4600   -3.7510   -2.2800 ho        1 MOL      0.422697
    177 O24        -0.8520   -2.6640   -3.4300 oh        1 MOL     -0.848996
    178 H84        -1.1430   -1.8010   -3.1340 ho        1 MOL      0.422697
    179 H85         0.0890   -2.5860   -3.5140 ho        1 MOL      0.422697
    180 O25        -1.6900   -5.6580   -4.3290 oh        1 MOL     -0.848996
    181 H86        -1.1910   -5.4410   -5.1260 ho        1 MOL      0.422697
    182 H87        -1.5490   -6.5940   -4.2100 ho        1 MOL      0.422697
    183 O26         0.3390   -6.0630    0.0610 oh        1 MOL     -0.848996
    184 H88         0.7440   -6.9100    0.2460 ho        1 MOL      0.422697
    185 H89         0.1250   -5.7120    0.9300 ho        1 MOL      0.422697
    186 O27        -2.0810   -7.1940   -1.8940 oh        1 MOL     -0.848996
    187 H90        -2.8730   -7.4660   -2.3530 ho        1 MOL      0.422697
    188 H91        -1.8250   -7.9550   -1.3830 ho        1 MOL      0.422697
@<TRIPOS>BOND
     1    1    2 1   
     2    1    4 1   
     3    1    5 1   
     4    1    6 1   
     5    2    3 2   
     6    2    7 1   
     7    7    8 1   
     8    7   15 1   
     9    8    9 1   
    10    8   11 1   
    11    8   16 1   
    12    9   10 2   
    13    9   19 1   
    14   11   12 1   
    15   11   17 1   
    16   11   18 1   
    17   12   13 1   
    18   12   14 1   
    19   19   20 1   
    20   19   28 1   
    21   20   21 1   
    22   20   23 1   
    23   20   29 1   
    24   21   22 2   
    25   21   41 1   
    26   23   24 1   
    27   23   30 1   
    28   23   31 1   
    29   24   25 1   
    30   24   32 1   
    31   24   33 1   
    32   25   26 1   
    33   25   34 1   
    34   25   35 1   
    35   26   27 1   
    36   26   36 1   
    37   26   37 1   
    38   27   38 1   
    39   27   39 1   
    40   27   40 1   
    41   41   42 1   
    42   41   49 1   
    43   42   43 1   
    44   42   45 1   
    45   42   50 1   
    46   43   44 2   
    47   43   53 1   
    48   45   46 1   
    49   45   51 1   
    50   45   52 1   
    51   46   47 1   
    52   46   48 1   
    53   53   54 1   
    54   53   57 1   
    55   54   55 1   
    56   54   58 1   
    57   54   59 1   
    58   55   56 2   
    59   55   60 1   
    60   60   61 1   
    61   60   68 1   
    62   61   62 1   
    63   61   64 1   
    64   61   69 1   
    65   62   63 2   
    66   62   74 1   
    67   64   65 1   
    68   64   70 1   
    69   64   71 1   
    70   65   66 1   
    71   65   67 2   
    72   66   72 1   
    73   66   73 1   
    74   74   75 1   
    75   74   78 1   
    76   75   76 1   
    77   75   79 1   
    78   75   80 1   
    79   76   77 2   
    80   76   81 1   
    81   81   82 1   
    82   81   93 1   
    83   82   83 1   
    84   82   85 1   
    85   82   94 1   
    86   83   84 2   
    87   83  102 1   
    88   85   86 1   
    89   85   95 1   
    90   85   96 1   
    91   86   87 ar  
    92   86   88 ar  
    93   87   89 ar  
    94   87   97 1   
    95   88   90 ar  
    96   88   98 1   
    97   89   91 ar  
    98   89   99 1   
    99   90   91 ar  
   100   90  100 1   
   101   91   92 1   
   102   92  101 1   
   103  102  103 1   
   104  102  110 1   
   105  103  104 1   
   106  103  106 1   
   107  103  111 1   
   108  104  105 2   
   109  104  121 1   
   110  106  107 1   
   111  106  108 1   
   112  106  112 1   
   113  107  109 1   
   114  107  113 1   
   115  107  114 1   
   116  108  115 1   
   117  108  116 1   
   118  108  117 1   
   119  109  118 1   
   120  109  119 1   
   121  109  120 1   
   122  121  122 1   
   123  121  127 1   
   124  122  123 1   
   125  122  125 1   
   126  122  128 1   
   127  123  124 2   
   128  123  132 1   
   129  125  126 1   
   130  125  129 1   
   131  125  130 1   
   132  126  131 1   
   133  132  133 1   
   134  132  137 1   
   135  133  134 1   
   136  133  136 1   
   137  133  138 1   
   138  134  135 2   
   139  134  142 1   
   140  136  139 1   
   141  136  140 1   
   142  136  141 1   
   143  142  143 1   
   144  142  147 1   
   145  143  144 1   
   146  143  146 1   
   147  143  148 1   
   148  144  145 2   
   149  144  152 1   
   150  146  149 1   
   151  146  150 1   
   152  146  151 1   
   153  152  153 1   
   154  152  161 1   
   155  153  154 1   
   156  153  156 1   
   157  153  162 1   
   158  154  155 2   
   159  154  167 1   
   160  156  157 1   
   161  156  163 1   
   162  156  164 1   
   163  157  158 1   
   164  157  165 1   
   165  157  166 1   
   166  158  159 1   
   167  158  160 1   
   168  167  168 1   
   169  167  172 1   
   170  168  169 1   
   171  168  170 1   
   172  168  171 1   
   173  174  175 1   
   174  174  176 1   
   175  177  178 1   
   176  177  179 1   
   177  180  181 1   
   178  180  182 1   
   179  183  184 1   
   180  183  185 1   
   181  186  187 1   
   182  186  188 1   
@<TRIPOS>SUBSTRUCTURE
     1 MOL         1 TEMP              0 ****  ****    0 ROOT
