@<TRIPOS>MOLECULE
MOL
  181   177     1     0     0
SMALL
resp


@<TRIPOS>ATOM
      1 C1          1.9030   -1.5130    4.7030 c3        1 MOL     -0.375259
      2 C2          3.1280   -0.7970    4.0150 c         1 MOL      0.521363
      3 O1          3.1540    0.0640    3.1300 o         1 MOL     -0.558692
      4 H1          1.4030   -2.1540    3.9760 hc        1 MOL      0.097906
      5 H2          2.2570   -2.1190    5.5380 hc        1 MOL      0.097906
      6 H3          1.2030   -0.7630    5.0690 hc        1 MOL      0.097906
      7 N1          4.2660   -1.2750    4.3540 n         1 MOL     -0.286400
      8 C3          5.5540   -1.1130    3.6330 c3        1 MOL     -0.117832
      9 C4          5.6410   -1.6730    2.2180 c         1 MOL      0.634452
     10 O2          6.3170   -0.9870    1.4010 o         1 MOL     -0.492059
     11 C5          6.7060   -1.7690    4.4170 c3        1 MOL     -0.136605
     12 C6          8.0710   -1.0440    4.2060 c         1 MOL      0.690875
     13 O3          8.8540   -1.5210    3.4150 o         1 MOL     -0.691763
     14 O4          8.2860    0.0080    4.8530 o         1 MOL     -0.691763
     15 H4          4.1290   -1.9600    5.0700 hn        1 MOL      0.215187
     16 H5          5.8020   -0.0480    3.5870 h1        1 MOL      0.114709
     17 H6          6.7280   -2.8080    4.1080 hc        1 MOL     -0.006295
     18 H7          6.5410   -1.6730    5.4910 hc        1 MOL     -0.006295
     19 N2          4.9650   -2.7380    1.9110 n         1 MOL     -0.380602
     20 C7          4.9210   -3.6160    0.6530 c3        1 MOL      0.051799
     21 C8          4.8000   -2.7630   -0.6030 c         1 MOL      0.825727
     22 O5          3.6760   -2.4160   -1.0290 o         1 MOL     -0.884356
     23 C9          6.0700   -4.5750    0.5730 c3        1 MOL     -0.288416
     24 H8          4.3940   -3.0570    2.6860 hn        1 MOL      0.242183
     25 H9          4.0440   -4.2500    0.7700 h1        1 MOL      0.081410
     26 H10         6.0950   -5.0120    1.5720 hc        1 MOL      0.072753
     27 H11         5.9390   -5.3620   -0.1560 hc        1 MOL      0.072753
     28 H12         7.0080   -4.0890    0.2950 hc        1 MOL      0.072753
     29 N3          5.9340   -2.3110   -1.1870 n         1 MOL     -0.483076
     30 C10         5.8960   -1.5860   -2.4330 c3        1 MOL      0.047543
     31 C11         5.7920   -0.0680   -2.2970 c         1 MOL      0.415916
     32 O6          5.8960    0.7610   -3.2440 o         1 MOL     -0.571485
     33 C12         7.2560   -1.8000   -3.2340 c3        1 MOL     -0.106822
     34 C13         8.5010   -1.6470   -2.4090 c         1 MOL      0.680101
     35 O7          8.6070   -2.1950   -1.2900 o         1 MOL     -0.678288
     36 O8          9.4150   -0.9890   -2.9170 o         1 MOL     -0.678288
     37 H13         6.7870   -2.2070   -0.6620 hn        1 MOL      0.290070
     38 H14         5.0000   -1.7940   -3.0060 h1        1 MOL      0.070144
     39 H15         7.2840   -1.1720   -4.1300 hc        1 MOL     -0.016189
     40 H16         7.1790   -2.8210   -3.5900 hc        1 MOL     -0.016189
     41 N4          5.7300    0.4560   -1.1160 n         1 MOL      0.022335
     42 C14         5.9310    1.9010   -0.8020 c3        1 MOL     -0.222790
     43 C15         4.7640    2.7960   -1.2580 c         1 MOL      0.700164
     44 O9          5.0510    3.9540   -1.6960 o         1 MOL     -0.592901
     45 H17         5.4800   -0.1460   -0.3410 hn        1 MOL      0.112384
     46 H18         6.8870    2.2690   -1.1710 h1        1 MOL      0.107083
     47 H19         5.9220    1.9320    0.2860 h1        1 MOL      0.107083
     48 N5          3.5010    2.3010   -1.2570 n         1 MOL     -0.553722
     49 C16         2.4240    2.9340   -1.9680 c3        1 MOL     -0.089456
     50 C17         1.9480    4.1490   -1.2640 c         1 MOL      0.660934
     51 O10         1.7600    4.2900   -0.0650 o         1 MOL     -0.534253
     52 C18         1.3200    1.9510   -2.3910 c3        1 MOL     -0.304245
     53 C19         1.8730    0.7630   -3.1860 c         1 MOL      0.455759
     54 N6          2.4860    0.9690   -4.3520 n         1 MOL     -0.666792
     55 O11         1.8520   -0.4260   -2.8210 o         1 MOL     -0.390709
     56 H20         3.2730    1.5250   -0.6620 hn        1 MOL      0.364516
     57 H21         2.8750    3.1880   -2.9310 h1        1 MOL      0.105096
     58 H22         0.5150    2.4610   -2.9150 hc        1 MOL      0.148396
     59 H23         0.8940    1.5750   -1.4560 hc        1 MOL      0.148396
     60 H24         2.4810    1.9090   -4.7310 hn        1 MOL      0.331744
     61 H25         2.6850    0.2070   -4.9780 hn        1 MOL      0.331744
     62 N7          1.6990    5.1680   -2.0620 n         1 MOL     -0.382504
     63 C20         1.5170    6.6110   -1.7890 c3        1 MOL     -0.115706
     64 C21         0.0740    6.9380   -1.6460 c         1 MOL      0.561861
     65 O12        -0.6890    6.4240   -2.4640 o         1 MOL     -0.525516
     66 H26         1.7000    5.0500   -3.0690 hn        1 MOL      0.261654
     67 H27         1.9400    7.2600   -2.5560 h1        1 MOL      0.087385
     68 H28         1.9690    6.9170   -0.8390 h1        1 MOL      0.087385
     69 N8         -0.3500    7.5420   -0.5450 n         1 MOL     -0.491201
     70 C22        -1.7570    7.9490   -0.2950 c3        1 MOL     -0.231263
     71 C23        -2.6340    6.7900    0.1670 c         1 MOL      0.548135
     72 O13        -3.8380    6.9660    0.1400 o         1 MOL     -0.562204
     73 C24        -2.0150    9.2330    0.5010 c3        1 MOL      0.472033
     74 C25        -1.7390    9.0420    1.9530 c3        1 MOL     -0.299736
     75 O14        -1.3470   10.3050   -0.1420 oh        1 MOL     -0.619513
     76 H29         0.3480    7.8240    0.1320 hn        1 MOL      0.295543
     77 H30        -2.1450    8.0920   -1.2980 h1        1 MOL      0.152410
     78 H31        -3.0870    9.4220    0.3920 h1        1 MOL      0.030218
     79 H32        -0.4130   10.1290   -0.0220 ho        1 MOL      0.370229
     80 H33        -2.5260    8.4720    2.4510 hc        1 MOL      0.065904
     81 H34        -0.8150    8.5320    2.1890 hc        1 MOL      0.065904
     82 H35        -1.6390   10.0440    2.3650 hc        1 MOL      0.065904
     83 N9         -2.0110    5.6260    0.5370 n         1 MOL     -0.225618
     84 C26        -2.5660    4.4230    1.1660 c3        1 MOL     -0.032257
     85 C27        -2.1580    3.2080    0.3320 c         1 MOL      0.472566
     86 O15        -1.3200    3.3890   -0.6190 o         1 MOL     -0.477667
     87 C28        -1.9890    4.3040    2.6880 c3        1 MOL     -0.051920
     88 C29        -0.4740    4.0540    2.7880 c3        1 MOL     -0.034526
     89 C30        -2.4700    5.5270    3.4750 c3        1 MOL     -0.185619
     90 C31         0.1070    3.9060    4.2350 c3        1 MOL     -0.295149
     91 H36        -1.0100    5.5340    0.3590 hn        1 MOL      0.201265
     92 H37        -3.6470    4.3470    1.2150 h1        1 MOL      0.070573
     93 H38        -2.4440    3.4150    3.1230 hc        1 MOL      0.050367
     94 H39         0.0600    4.8250    2.2330 hc        1 MOL      0.086338
     95 H40        -0.2780    3.0660    2.3700 hc        1 MOL      0.086338
     96 H41        -3.5120    5.7810    3.2900 hc        1 MOL      0.055984
     97 H42        -2.4520    5.3730    4.5550 hc        1 MOL      0.055984
     98 H43        -1.8770    6.4420    3.3640 hc        1 MOL      0.055984
     99 H44         1.0050    3.3010    4.1560 hc        1 MOL      0.082713
    100 H45         0.4790    4.8490    4.6350 hc        1 MOL      0.082713
    101 H46        -0.6200    3.4840    4.9220 hc        1 MOL      0.082713
    102 N10        -2.5730    1.9560    0.8030 n         1 MOL     -0.566147
    103 C32        -2.2150    0.7250    0.0950 c3        1 MOL      0.264512
    104 C33        -3.4270   -0.1620   -0.0500 c         1 MOL      0.550845
    105 O16        -3.3400   -1.3860    0.1870 o         1 MOL     -0.507569
    106 C34        -1.0580    0.0630    0.7120 c3        1 MOL     -0.112853
    107 C35        -0.4280   -1.0730   -0.1300 c         1 MOL      0.420239
    108 O17         0.5690   -1.6790    0.3080 o         1 MOL     -0.641011
    109 O18        -0.7020   -1.2720   -1.3440 o         1 MOL     -0.641011
    110 H47        -3.1050    1.9900    1.6520 hn        1 MOL      0.292638
    111 H48        -1.9580    0.9140   -0.9520 h1        1 MOL     -0.001670
    112 H49        -1.2750   -0.3150    1.7080 hc        1 MOL      0.090537
    113 H50        -0.2590    0.7950    0.7730 hc        1 MOL      0.090537
    114 N11        -4.6420    0.4170   -0.2860 n         1 MOL     -0.523126
    115 C36        -5.8200   -0.3280   -0.7110 c3        1 MOL      0.272242
    116 C37        -6.1590   -1.5560    0.0600 c         1 MOL      0.255057
    117 O19        -6.3560   -1.4200    1.2610 o         1 MOL     -0.483489
    118 C38        -7.0830    0.6300   -0.7240 c3        1 MOL     -0.522696
    119 C39        -8.3190   -0.1510   -1.2160 ca        1 MOL      0.260548
    120 C40        -8.4890   -0.2840   -2.6100 ca        1 MOL     -0.262643
    121 C41        -9.3020   -0.6880   -0.3690 ca        1 MOL     -0.262643
    122 C42        -9.4200   -1.1580   -3.1380 ca        1 MOL     -0.056404
    123 C43       -10.2510   -1.5470   -0.8470 ca        1 MOL     -0.056404
    124 C44       -10.3900   -1.7640   -2.2710 ca        1 MOL     -0.179721
    125 H51        -4.6160    1.4230   -0.4260 hn        1 MOL      0.294776
    126 H52        -5.6060   -0.6080   -1.7440 h1        1 MOL      0.028808
    127 H53        -6.8700    1.4270   -1.4300 hc        1 MOL      0.173478
    128 H54        -7.3640    1.0220    0.2490 hc        1 MOL      0.173478
    129 H55        -7.6580    0.0480   -3.2280 ha        1 MOL      0.146018
    130 H56        -9.1650   -0.4950    0.6940 ha        1 MOL      0.146018
    131 H57        -9.3990   -1.2820   -4.2080 ha        1 MOL      0.101702
    132 H58       -10.9210   -2.0620   -0.1890 ha        1 MOL      0.101702
    133 H59       -11.1160   -2.4110   -2.7350 ha        1 MOL      0.112091
    134 N12        -6.3570   -2.7070   -0.5590 n         1 MOL     -0.003469
    135 C45        -6.7000   -3.9880    0.1450 c3        1 MOL      0.040490
    136 C46        -5.7320   -4.3780    1.2140 c         1 MOL      0.170072
    137 O20        -6.0270   -5.3700    1.9590 o         1 MOL     -0.533974
    138 C47        -6.9180   -5.1090   -0.9010 c3        1 MOL     -0.040752
    139 C48        -7.2400   -4.2130   -2.1160 c3        1 MOL     -0.016350
    140 C49        -6.4210   -3.0100   -1.9740 c3        1 MOL      0.121955
    141 H60        -7.6550   -3.9010    0.6670 h1        1 MOL      0.095120
    142 H61        -5.9880   -5.6410   -1.1220 hc        1 MOL      0.051727
    143 H62        -7.7230   -5.8190   -0.6830 hc        1 MOL      0.051727
    144 H63        -6.9890   -4.7540   -3.0280 hc        1 MOL     -0.003920
    145 H64        -8.3060   -4.0060   -2.1680 hc        1 MOL     -0.003920
    146 H65        -5.3900   -3.2080   -2.2690 h1        1 MOL     -0.010433
    147 H66        -6.7750   -2.1670   -2.5680 h1        1 MOL     -0.010433
    148 N13        -4.5600   -3.8020    1.3560 n         1 MOL      0.081050
    149 C50        -3.6020   -4.0500    2.4130 c3        1 MOL     -0.197895
    150 C51        -3.7260   -3.0530    3.5790 c         1 MOL      0.438613
    151 O21        -3.0740   -3.2770    4.5880 o         1 MOL     -0.536974
    152 C52        -2.1520   -4.0900    1.9270 c3        1 MOL      0.074387
    153 C53        -1.9280   -5.1900    0.9710 c3        1 MOL      0.211179
    154 C54        -0.6330   -5.0720    0.2420 c         1 MOL      0.552200
    155 O22         0.3330   -5.6800    0.7370 o         1 MOL     -0.719551
    156 O23        -0.5400   -4.3170   -0.7430 o         1 MOL     -0.719551
    157 H67        -4.3040   -2.9900    0.7990 hn        1 MOL      0.061559
    158 H68        -3.6860   -5.0760    2.7760 h1        1 MOL      0.109476
    159 H69        -1.5520   -4.4410    2.7710 hc        1 MOL      0.035220
    160 H70        -1.8330   -3.0780    1.6680 hc        1 MOL      0.035220
    161 H71        -2.7220   -5.0990    0.2300 hc        1 MOL     -0.072324
    162 H72        -2.0930   -6.2110    1.2890 hc        1 MOL     -0.072324
    163 N14        -4.5260   -1.9870    3.4070 n         1 MOL     -0.171095
    164 C55        -4.7880   -0.9140    4.3850 c3        1 MOL     -0.148534
    165 H73        -4.2390   -1.1190    5.3040 h1        1 MOL      0.069571
    166 H74        -4.4620    0.0410    3.9730 h1        1 MOL      0.069571
    167 H75        -5.8550   -0.8720    4.6010 h1        1 MOL      0.069571
    168 H76        -4.9390   -1.7460    2.5240 hn        1 MOL      0.188254
    169 Ca1         1.2700   -2.9220   -1.9520 Ca        1 MOL      1.792963
    170 O24         3.3410   -3.4080   -3.7690 oh        1 MOL     -0.818442
    171 H77         3.4540   -2.9650   -4.6160 ho        1 MOL      0.396531
    172 H78         4.0310   -4.0730   -3.7530 ho        1 MOL      0.396531
    173 O25         0.1870   -4.6800   -3.5030 oh        1 MOL     -0.818442
    174 H79         0.7550   -5.4420   -3.4330 ho        1 MOL      0.396531
    175 H80        -0.3890   -4.8690   -4.2440 ho        1 MOL      0.396531
    176 O26         0.3720   -1.9020   -4.7230 oh        1 MOL     -0.818442
    177 H81         0.9950   -1.8880   -5.4390 ho        1 MOL      0.396531
    178 H82        -0.4570   -1.6120   -5.1110 ho        1 MOL      0.396531
    179 O27         2.2660   -5.2020   -1.0520 oh        1 MOL     -0.818442
    180 H83         2.8710   -5.9410   -1.0140 ho        1 MOL      0.396531
    181 H84         1.5690   -5.4280   -0.4290 ho        1 MOL      0.396531
@<TRIPOS>BOND
     1    1    2 1   
     2    1    4 1   
     3    1    5 1   
     4    1    6 1   
     5    2    3 2   
     6    2    7 1   
     7    7    8 1   
     8    7   15 1   
     9    8    9 1   
    10    8   11 1   
    11    8   16 1   
    12    9   10 2   
    13    9   19 1   
    14   11   12 1   
    15   11   17 1   
    16   11   18 1   
    17   12   13 1   
    18   12   14 1   
    19   19   20 1   
    20   19   24 1   
    21   20   21 1   
    22   20   23 1   
    23   20   25 1   
    24   21   22 2   
    25   21   29 1   
    26   23   26 1   
    27   23   27 1   
    28   23   28 1   
    29   29   30 1   
    30   29   37 1   
    31   30   31 1   
    32   30   33 1   
    33   30   38 1   
    34   31   32 2   
    35   31   41 1   
    36   33   34 1   
    37   33   39 1   
    38   33   40 1   
    39   34   35 1   
    40   34   36 1   
    41   41   42 1   
    42   41   45 1   
    43   42   43 1   
    44   42   46 1   
    45   42   47 1   
    46   43   44 2   
    47   43   48 1   
    48   48   49 1   
    49   48   56 1   
    50   49   50 1   
    51   49   52 1   
    52   49   57 1   
    53   50   51 2   
    54   50   62 1   
    55   52   53 1   
    56   52   58 1   
    57   52   59 1   
    58   53   54 1   
    59   53   55 2   
    60   54   60 1   
    61   54   61 1   
    62   62   63 1   
    63   62   66 1   
    64   63   64 1   
    65   63   67 1   
    66   63   68 1   
    67   64   65 2   
    68   64   69 1   
    69   69   70 1   
    70   69   76 1   
    71   70   71 1   
    72   70   73 1   
    73   70   77 1   
    74   71   72 2   
    75   71   83 1   
    76   73   74 1   
    77   73   75 1   
    78   73   78 1   
    79   74   80 1   
    80   74   81 1   
    81   74   82 1   
    82   75   79 1   
    83   83   84 1   
    84   83   91 1   
    85   84   85 1   
    86   84   87 1   
    87   84   92 1   
    88   85   86 2   
    89   85  102 1   
    90   87   88 1   
    91   87   89 1   
    92   87   93 1   
    93   88   90 1   
    94   88   94 1   
    95   88   95 1   
    96   89   96 1   
    97   89   97 1   
    98   89   98 1   
    99   90   99 1   
   100   90  100 1   
   101   90  101 1   
   102  102  103 1   
   103  102  110 1   
   104  103  104 1   
   105  103  106 1   
   106  103  111 1   
   107  104  105 2   
   108  104  114 1   
   109  106  107 1   
   110  106  112 1   
   111  106  113 1   
   112  107  108 1   
   113  107  109 1   
   114  114  115 1   
   115  114  125 1   
   116  115  116 1   
   117  115  118 1   
   118  115  126 1   
   119  116  117 2   
   120  116  134 1   
   121  118  119 1   
   122  118  127 1   
   123  118  128 1   
   124  119  120 ar  
   125  119  121 ar  
   126  120  122 ar  
   127  120  129 1   
   128  121  123 ar  
   129  121  130 1   
   130  122  124 ar  
   131  122  131 1   
   132  123  124 ar  
   133  123  132 1   
   134  124  133 1   
   135  134  135 1   
   136  134  140 1   
   137  135  136 1   
   138  135  138 1   
   139  135  141 1   
   140  136  137 2   
   141  136  148 1   
   142  138  139 1   
   143  138  142 1   
   144  138  143 1   
   145  139  140 1   
   146  139  144 1   
   147  139  145 1   
   148  140  146 1   
   149  140  147 1   
   150  148  149 1   
   151  148  157 1   
   152  149  150 1   
   153  149  152 1   
   154  149  158 1   
   155  150  151 2   
   156  150  163 1   
   157  152  153 1   
   158  152  159 1   
   159  152  160 1   
   160  153  154 1   
   161  153  161 1   
   162  153  162 1   
   163  154  155 1   
   164  154  156 1   
   165  163  164 1   
   166  163  168 1   
   167  164  165 1   
   168  164  166 1   
   169  164  167 1   
   170  170  171 1   
   171  170  172 1   
   172  173  174 1   
   173  173  175 1   
   174  176  177 1   
   175  176  178 1   
   176  179  180 1   
   177  179  181 1   
@<TRIPOS>SUBSTRUCTURE
     1 MOL         1 TEMP              0 ****  ****    0 ROOT
