@<TRIPOS>MOLECULE
MOL
  186   183     1     0     0
SMALL
resp


@<TRIPOS>ATOM
      1 C1        -11.6170    3.9980    3.9030 c3        1 MOL     -0.423478
      2 C2        -11.5860    3.2560    2.5860 c         1 MOL      0.736032
      3 O1        -12.0400    2.1440    2.4720 o         1 MOL     -0.616678
      4 H1        -10.6010    4.2580    4.1980 hc        1 MOL      0.105264
      5 H2        -12.2080    4.9070    3.7950 hc        1 MOL      0.105264
      6 H3        -12.0660    3.3630    4.6680 hc        1 MOL      0.105264
      7 N1        -11.1270    3.9480    1.5430 n         1 MOL     -0.161565
      8 C3        -11.0510    3.2670    0.2500 c3        1 MOL     -0.653354
      9 C4         -9.8850    2.3340    0.2320 c         1 MOL      0.617509
     10 O2         -8.8710    2.5090    0.9020 o         1 MOL     -0.590773
     11 C5        -11.0180    4.3500   -0.8760 c3        1 MOL      0.098945
     12 C6        -10.0060    5.5020   -0.6920 c         1 MOL      0.767665
     13 O3         -9.2340    5.6390    0.2550 o         1 MOL     -0.727065
     14 O4         -9.8340    6.3460   -1.5700 o         1 MOL     -0.727065
     15 H4        -10.6220    4.8010    1.7240 hn        1 MOL      0.095071
     16 H5        -11.9260    2.6210    0.2080 h1        1 MOL      0.209196
     17 H6        -11.9980    4.8190   -0.8890 hc        1 MOL      0.038385
     18 H7        -10.8900    3.8950   -1.8580 hc        1 MOL      0.038385
     19 N2        -10.1090    1.2910   -0.4630 n         1 MOL     -0.281551
     20 C7         -9.4200    0.0420   -0.2640 c3        1 MOL     -0.284890
     21 C8         -7.8830   -0.0200   -0.4690 c         1 MOL      0.299659
     22 O5         -7.2990   -1.1120   -0.4460 o         1 MOL     -0.466403
     23 C9        -10.1700   -1.1290   -1.0040 c3        1 MOL     -0.003883
     24 C10       -11.6160   -1.2400   -0.4810 c3        1 MOL     -0.019157
     25 C11       -12.4050   -2.3690   -1.2240 c3        1 MOL     -0.026788
     26 C12       -11.8580   -3.6860   -0.7020 c3        1 MOL      0.040750
     27 N3        -12.6350   -4.8090   -1.3350 n4        1 MOL     -0.284958
     28 H8        -10.9520    1.2250   -1.0160 hn        1 MOL      0.287926
     29 H9         -9.4710   -0.1340    0.8100 h1        1 MOL      0.200005
     30 H10        -9.6760   -2.0880   -0.8550 hc        1 MOL      0.060542
     31 H11       -10.1460   -0.9370   -2.0740 hc        1 MOL      0.060542
     32 H12       -12.1200   -0.3030   -0.6920 hc        1 MOL      0.030171
     33 H13       -11.6260   -1.4650    0.5840 hc        1 MOL      0.030171
     34 H14       -12.3660   -2.2890   -2.3150 hc        1 MOL      0.027580
     35 H15       -13.4480   -2.2830   -0.9190 hc        1 MOL      0.027580
     36 H16       -11.8890   -3.7200    0.3910 hx        1 MOL      0.090822
     37 H17       -10.8370   -3.7890   -1.0750 hx        1 MOL      0.090822
     38 H18       -12.4190   -5.6640   -0.8440 hn        1 MOL      0.285631
     39 H19       -13.6130   -4.5840   -1.2160 hn        1 MOL      0.285631
     40 H20       -12.5650   -4.8850   -2.3340 hn        1 MOL      0.285631
     41 N4         -7.2320    1.0950   -0.7410 n         1 MOL      0.295820
     42 C13        -5.7850    1.1860   -0.9420 c3        1 MOL     -0.643989
     43 C14        -5.0520    1.5380    0.4100 c         1 MOL      0.841285
     44 O6         -5.6330    2.1620    1.2560 o         1 MOL     -0.775635
     45 C15        -5.4920    2.1990   -2.0700 c3        1 MOL     -0.130062
     46 C16        -6.2930    3.5780   -2.1770 c         1 MOL      0.368820
     47 O7         -6.2330    4.2920   -3.1850 o         1 MOL     -0.516345
     48 O8         -7.1020    3.7820   -1.2360 o         1 MOL     -0.516345
     49 H21        -7.6780    1.9790   -0.9240 hn        1 MOL      0.088546
     50 H22        -5.5700    0.2220   -1.3880 h1        1 MOL      0.223804
     51 H23        -5.7420    1.5850   -2.9380 hc        1 MOL      0.097123
     52 H24        -4.4290    2.4370   -2.0080 hc        1 MOL      0.097123
     53 N5         -3.7650    1.2390    0.5070 n         1 MOL     -0.518934
     54 C17        -3.1150    0.2160   -0.3270 c3        1 MOL      0.049258
     55 C18        -3.5490   -1.1910   -0.1830 c         1 MOL      0.558989
     56 O9         -3.7050   -1.7340    0.8900 o         1 MOL     -0.552443
     57 H25        -3.2730    1.5610    1.3380 hn        1 MOL      0.305457
     58 H26        -2.0420    0.2560   -0.1310 h1        1 MOL      0.072678
     59 H27        -3.0730    0.6000   -1.3460 h1        1 MOL      0.072678
     60 N6         -3.6290   -1.8120   -1.3480 n         1 MOL     -0.408058
     61 C19        -3.9940   -3.1840   -1.7160 c3        1 MOL      0.025803
     62 C20        -2.6770   -4.0980   -1.8790 c         1 MOL      0.404521
     63 O10        -1.6230   -3.5240   -2.2760 o         1 MOL     -0.450465
     64 C21        -4.8290   -3.1320   -3.0240 c3        1 MOL     -0.036788
     65 C22        -5.3390   -4.4950   -3.3720 c         1 MOL      0.596882
     66 O11        -6.2060   -4.9810   -2.6040 o         1 MOL     -0.680943
     67 O12        -4.7640   -5.0640   -4.3510 o         1 MOL     -0.680943
     68 H28        -3.5140   -1.2020   -2.1420 hn        1 MOL      0.215202
     69 H29        -4.7180   -3.6050   -1.0220 h1        1 MOL      0.032865
     70 H30        -4.1430   -2.8830   -3.8300 hc        1 MOL      0.020008
     71 H31        -5.6040   -2.3670   -3.0570 hc        1 MOL      0.020008
     72 N7         -2.7050   -5.4280   -1.6680 n         1 MOL     -0.179778
     73 C23        -1.3790   -6.1770   -1.7130 c3        1 MOL     -0.237069
     74 C24        -0.2740   -5.6190   -0.8210 c         1 MOL      0.580984
     75 O13         0.9020   -5.7210   -1.2330 o         1 MOL     -0.559912
     76 H32        -3.4840   -5.9370   -1.2740 hn        1 MOL      0.236530
     77 H33        -1.0580   -6.0700   -2.7470 h1        1 MOL      0.123663
     78 H34        -1.5350   -7.2190   -1.4520 h1        1 MOL      0.123663
     79 N8         -0.6240   -5.1440    0.3710 n         1 MOL     -0.391456
     80 C25         0.2630   -4.5080    1.3320 c3        1 MOL      0.235224
     81 C26         0.4930   -3.0370    0.9310 c         1 MOL      0.429178
     82 O14        -0.2030   -2.3430    0.2020 o         1 MOL     -0.523329
     83 C27        -0.2320   -4.6150    2.8100 c3        1 MOL      0.267643
     84 C28        -1.4880   -3.8940    3.2650 c3        1 MOL     -0.350397
     85 O15        -0.4220   -5.9990    3.0700 oh        1 MOL     -0.647426
     86 H35        -1.5960   -5.1990    0.6240 hn        1 MOL      0.212283
     87 H36         1.2060   -5.0380    1.1860 h1        1 MOL      0.005960
     88 H37         0.5650   -4.2730    3.4810 h1        1 MOL     -0.011811
     89 H38        -1.0730   -6.0470    3.7720 ho        1 MOL      0.396499
     90 H39        -1.6850   -4.1550    4.3090 hc        1 MOL      0.100424
     91 H40        -1.2680   -2.8290    3.1630 hc        1 MOL      0.100424
     92 H41        -2.3750   -4.2040    2.7070 hc        1 MOL      0.100424
     93 N9          1.6460   -2.5860    1.3170 n         1 MOL     -0.191592
     94 C29         2.2330   -1.2340    1.0820 c3        1 MOL     -0.115184
     95 C30         3.5970   -1.3670    0.3650 c         1 MOL      0.705095
     96 O16         3.8730   -0.6270   -0.5800 o         1 MOL     -0.554067
     97 C31         2.3080   -0.3880    2.4050 c3        1 MOL      0.134331
     98 C32         1.2110   -0.8080    3.4540 c3        1 MOL     -0.141312
     99 C33         2.4000    1.0880    1.9950 c3        1 MOL     -0.200402
    100 C34         1.4030    0.0230    4.7390 c3        1 MOL     -0.068059
    101 H42         2.1150   -3.2480    1.9120 hn        1 MOL      0.158048
    102 H43         1.5530   -0.7200    0.3990 h1        1 MOL      0.099022
    103 H44         3.2350   -0.6990    2.8980 hc        1 MOL      0.021218
    104 H45         1.4990   -1.8500    3.5870 hc        1 MOL      0.055027
    105 H46         0.1980   -0.6170    3.1110 hc        1 MOL      0.055027
    106 H47         3.2650    1.1990    1.3520 hc        1 MOL      0.057356
    107 H48         1.5220    1.4060    1.4340 hc        1 MOL      0.057356
    108 H49         2.6430    1.7970    2.7970 hc        1 MOL      0.057356
    109 H50         0.8180   -0.3850    5.5700 hc        1 MOL      0.017195
    110 H51         2.4480   -0.1140    5.0190 hc        1 MOL      0.017195
    111 H52         1.2180    1.0960    4.6310 hc        1 MOL      0.017195
    112 N10         4.4240   -2.3100    0.8000 n         1 MOL     -0.673135
    113 C35         5.7020   -2.6560    0.1840 c3        1 MOL      0.111278
    114 C36         6.7660   -2.7250    1.2410 c         1 MOL      0.731855
    115 O17         6.4390   -2.8900    2.4400 o         1 MOL     -0.560441
    116 C37         5.4730   -3.9840   -0.5120 c3        1 MOL      0.281217
    117 C38         4.3660   -4.2540   -1.5180 c3        1 MOL     -0.284461
    118 O18         6.6360   -4.3920   -1.1560 oh        1 MOL     -0.670305
    119 H53         4.1410   -2.9280    1.5460 hn        1 MOL      0.297283
    120 H54         6.0080   -1.9520   -0.5860 h1        1 MOL      0.087754
    121 H55         5.3620   -4.6530    0.3440 h1        1 MOL     -0.027499
    122 H56         6.2760   -5.1870   -1.5660 ho        1 MOL      0.406795
    123 H57         4.4600   -5.2890   -1.8210 hc        1 MOL      0.096767
    124 H58         3.4180   -3.9920   -1.0530 hc        1 MOL      0.096767
    125 H59         4.4960   -3.6590   -2.4140 hc        1 MOL      0.096767
    126 N11         7.9820   -2.4520    0.7740 n         1 MOL     -0.824297
    127 C39         9.1650   -2.4350    1.6640 c3        1 MOL      0.242409
    128 C40         9.7580   -1.0750    1.6510 c         1 MOL      0.487588
    129 O19        10.2810   -0.6010    2.7070 o         1 MOL     -0.584656
    130 C41        10.1660   -3.4830    1.1810 c3        1 MOL      0.350368
    131 C42        11.2720   -3.7500    2.1860 c3        1 MOL     -0.372787
    132 O20        10.7970   -3.0720   -0.0120 oh        1 MOL     -0.619589
    133 H60         8.0050   -2.2990   -0.2190 hn        1 MOL      0.375875
    134 H61         8.9420   -2.7080    2.7030 h1        1 MOL      0.051376
    135 H62         9.5750   -4.3940    1.0720 h1        1 MOL      0.016101
    136 H63        10.3730   -3.5580   -0.7250 ho        1 MOL      0.391796
    137 H64        11.8720   -2.8510    2.2780 hc        1 MOL      0.099533
    138 H65        10.8670   -4.0420    3.1640 hc        1 MOL      0.099533
    139 H66        11.8790   -4.5830    1.8330 hc        1 MOL      0.099533
    140 N12         9.9130   -0.4140    0.5180 n         1 MOL     -0.196849
    141 C43        10.4390    0.9990    0.4110 c3        1 MOL      0.023983
    142 C44         9.6000    1.9020   -0.5830 c         1 MOL      0.171879
    143 O21         8.8400    1.4260   -1.4990 o         1 MOL     -0.483797
    144 C45        11.9730    0.9310    0.1610 c3        1 MOL     -0.456590
    145 C46        12.2680    0.7010   -1.3320 c3        1 MOL      0.113404
    146 C47        13.7750    0.6530   -1.7090 c3        1 MOL     -0.216791
    147 C48        14.6060    1.7660   -1.0380 c3        1 MOL      0.345785
    148 N13        16.0660    1.6340   -1.3890 n4        1 MOL     -0.441494
    149 H67         9.6290   -0.7730   -0.3800 hn        1 MOL      0.206673
    150 H68        10.3860    1.5460    1.3590 h1        1 MOL      0.087746
    151 H69        12.3300    0.1110    0.7850 hc        1 MOL      0.171141
    152 H70        12.4790    1.8670    0.4270 hc        1 MOL      0.171141
    153 H71        11.8820    1.5210   -1.9370 hc        1 MOL      0.062580
    154 H72        11.8310   -0.2300   -1.7020 hc        1 MOL      0.062580
    155 H73        13.7520    0.8420   -2.7850 hc        1 MOL      0.053730
    156 H74        14.2750   -0.2780   -1.4610 hc        1 MOL      0.053730
    157 H75        14.4000    1.7500    0.0330 hx        1 MOL     -0.019771
    158 H76        14.2460    2.7610   -1.3120 hx        1 MOL     -0.019771
    159 H77        16.6510    2.3600   -1.0190 hn        1 MOL      0.304745
    160 H78        16.4330    0.7150   -1.1530 hn        1 MOL      0.304745
    161 H79        16.1520    1.8440   -2.3700 hn        1 MOL      0.304745
    162 N14         9.5540    3.1760   -0.3370 n         1 MOL     -0.228001
    163 C49         8.6370    4.1270   -1.1680 c3        1 MOL      0.355032
    164 C50         7.0760    4.0470   -1.0150 c         1 MOL      0.377058
    165 O22         6.4570    4.2100   -2.0320 o         1 MOL     -0.508319
    166 C51         9.0820    5.5640   -1.0600 c3        1 MOL      0.040909
    167 C52        10.3800    5.8230   -1.8020 c3        1 MOL     -0.347519
    168 C53        11.0550    7.2160   -1.4430 c         1 MOL      0.737418
    169 O23        12.2430    7.4260   -1.7540 o         1 MOL     -0.683363
    170 O24        10.3650    8.1310   -0.8810 o         1 MOL     -0.683363
    171 H80        10.0890    3.5250    0.4390 hn        1 MOL      0.264624
    172 H81         8.8810    3.8160   -2.1790 h1        1 MOL      0.007255
    173 H82         9.2560    5.6720    0.0190 hc        1 MOL      0.009281
    174 H83         8.2190    6.1300   -1.3830 hc        1 MOL      0.009281
    175 H84        10.1380    5.8290   -2.8620 hc        1 MOL      0.057676
    176 H85        11.1430    5.0900   -1.5390 hc        1 MOL      0.057676
    177 N15         6.3660    3.9100    0.1390 n         1 MOL     -0.379577
    178 C54         6.8960    4.2430    1.4910 c3        1 MOL      0.034945
    179 H86         7.9590    4.4690    1.4180 h1        1 MOL      0.016765
    180 H87         6.3660    5.1100    1.8850 h1        1 MOL      0.016765
    181 H88         6.7510    3.3940    2.1580 h1        1 MOL      0.016765
    182 H89         5.3930    3.6710    0.0440 hn        1 MOL      0.306697
    183 Ca1        -6.9870    4.6000    1.1690 Ca        1 MOL      1.694497
    184 O25        -7.6260    2.9600    3.2850 oh        1 MOL     -0.880522
    185 H90        -7.2150    2.1440    2.9960 ho        1 MOL      0.439883
    186 H91        -7.5890    2.9170    4.2420 ho        1 MOL      0.439883
@<TRIPOS>BOND
     1    1    2 1   
     2    1    4 1   
     3    1    5 1   
     4    1    6 1   
     5    2    3 2   
     6    2    7 1   
     7    7    8 1   
     8    7   15 1   
     9    8    9 1   
    10    8   11 1   
    11    8   16 1   
    12    9   10 2   
    13    9   19 1   
    14   11   12 1   
    15   11   17 1   
    16   11   18 1   
    17   12   13 1   
    18   12   14 1   
    19   19   20 1   
    20   19   28 1   
    21   20   21 1   
    22   20   23 1   
    23   20   29 1   
    24   21   22 2   
    25   21   41 1   
    26   23   24 1   
    27   23   30 1   
    28   23   31 1   
    29   24   25 1   
    30   24   32 1   
    31   24   33 1   
    32   25   26 1   
    33   25   34 1   
    34   25   35 1   
    35   26   27 1   
    36   26   36 1   
    37   26   37 1   
    38   27   38 1   
    39   27   39 1   
    40   27   40 1   
    41   41   42 1   
    42   41   49 1   
    43   42   43 1   
    44   42   45 1   
    45   42   50 1   
    46   43   44 2   
    47   43   53 1   
    48   45   46 1   
    49   45   51 1   
    50   45   52 1   
    51   46   47 1   
    52   46   48 1   
    53   53   54 1   
    54   53   57 1   
    55   54   55 1   
    56   54   58 1   
    57   54   59 1   
    58   55   56 2   
    59   55   60 1   
    60   60   61 1   
    61   60   68 1   
    62   61   62 1   
    63   61   64 1   
    64   61   69 1   
    65   62   63 2   
    66   62   72 1   
    67   64   65 1   
    68   64   70 1   
    69   64   71 1   
    70   65   66 1   
    71   65   67 1   
    72   72   73 1   
    73   72   76 1   
    74   73   74 1   
    75   73   77 1   
    76   73   78 1   
    77   74   75 2   
    78   74   79 1   
    79   79   80 1   
    80   79   86 1   
    81   80   81 1   
    82   80   83 1   
    83   80   87 1   
    84   81   82 2   
    85   81   93 1   
    86   83   84 1   
    87   83   85 1   
    88   83   88 1   
    89   84   90 1   
    90   84   91 1   
    91   84   92 1   
    92   85   89 1   
    93   93   94 1   
    94   93  101 1   
    95   94   95 1   
    96   94   97 1   
    97   94  102 1   
    98   95   96 2   
    99   95  112 1   
   100   97   98 1   
   101   97   99 1   
   102   97  103 1   
   103   98  100 1   
   104   98  104 1   
   105   98  105 1   
   106   99  106 1   
   107   99  107 1   
   108   99  108 1   
   109  100  109 1   
   110  100  110 1   
   111  100  111 1   
   112  112  113 1   
   113  112  119 1   
   114  113  114 1   
   115  113  116 1   
   116  113  120 1   
   117  114  115 2   
   118  114  126 1   
   119  116  117 1   
   120  116  118 1   
   121  116  121 1   
   122  117  123 1   
   123  117  124 1   
   124  117  125 1   
   125  118  122 1   
   126  126  127 1   
   127  126  133 1   
   128  127  128 1   
   129  127  130 1   
   130  127  134 1   
   131  128  129 2   
   132  128  140 1   
   133  130  131 1   
   134  130  132 1   
   135  130  135 1   
   136  131  137 1   
   137  131  138 1   
   138  131  139 1   
   139  132  136 1   
   140  140  141 1   
   141  140  149 1   
   142  141  142 1   
   143  141  144 1   
   144  141  150 1   
   145  142  143 2   
   146  142  162 1   
   147  144  145 1   
   148  144  151 1   
   149  144  152 1   
   150  145  146 1   
   151  145  153 1   
   152  145  154 1   
   153  146  147 1   
   154  146  155 1   
   155  146  156 1   
   156  147  148 1   
   157  147  157 1   
   158  147  158 1   
   159  148  159 1   
   160  148  160 1   
   161  148  161 1   
   162  162  163 1   
   163  162  171 1   
   164  163  164 1   
   165  163  166 1   
   166  163  172 1   
   167  164  165 2   
   168  164  177 1   
   169  166  167 1   
   170  166  173 1   
   171  166  174 1   
   172  167  168 1   
   173  167  175 1   
   174  167  176 1   
   175  168  169 1   
   176  168  170 1   
   177  177  178 1   
   178  177  182 1   
   179  178  179 1   
   180  178  180 1   
   181  178  181 1   
   182  184  185 1   
   183  184  186 1   
@<TRIPOS>SUBSTRUCTURE
     1 MOL         1 TEMP              0 ****  ****    0 ROOT
