@<TRIPOS>MOLECULE
MOL
  182   178     1     0     0
SMALL
resp


@<TRIPOS>ATOM
      1 C1          0.6620   -3.3040    6.5610 c3        1 MOL     -0.519075
      2 C2          0.5860   -3.0850    5.0170 c         1 MOL      0.729873
      3 O1         -0.4670   -3.0520    4.2920 o         1 MOL     -0.601024
      4 H1          0.3860   -2.3820    7.0720 hc        1 MOL      0.159741
      5 H2         -0.0260   -4.0990    6.8490 hc        1 MOL      0.159741
      6 H3          1.6780   -3.5840    6.8390 hc        1 MOL      0.159741
      7 N1          1.7910   -2.8500    4.3730 n         1 MOL     -0.566687
      8 C3          2.0560   -2.7370    2.9620 c3        1 MOL     -0.072051
      9 C4          2.1100   -4.0930    2.2160 c         1 MOL      0.360075
     10 O2          2.2940   -5.1670    2.7590 o         1 MOL     -0.512340
     11 C5          3.4080   -1.9600    2.8750 c3        1 MOL      0.086483
     12 C6          3.7480   -1.2020    1.5590 c         1 MOL      0.167649
     13 O3          4.3390   -0.1510    1.5910 o         1 MOL     -0.571715
     14 O4          3.2810   -1.6120    0.5340 o         1 MOL     -0.571715
     15 H4          2.6070   -2.8320    4.9760 hn        1 MOL      0.300400
     16 H5          1.2410   -2.1730    2.5160 h1        1 MOL      0.279797
     17 H6          4.2560   -2.5920    3.1490 hc        1 MOL      0.046185
     18 H7          3.4310   -1.3090    3.7400 hc        1 MOL      0.046185
     19 N2          1.9200   -4.0340    0.8610 n         1 MOL      0.020714
     20 C7          1.9130   -5.1730   -0.0960 c3        1 MOL     -0.004711
     21 C8          3.0280   -5.0960   -1.2300 c         1 MOL      0.542427
     22 O5          3.2960   -6.1020   -1.9230 o         1 MOL     -0.545906
     23 C9          0.4580   -5.2630   -0.5870 c3        1 MOL     -0.100596
     24 C10         0.1000   -6.5940   -1.2030 c3        1 MOL      0.349091
     25 C11        -1.3340   -6.5820   -1.7950 c3        1 MOL     -0.153271
     26 C12        -1.6730   -7.8890   -2.4970 c3        1 MOL     -0.060454
     27 N3         -3.1560   -7.9900   -2.4160 n4        1 MOL     -0.128661
     28 H8          1.6180   -3.1300    0.5390 hn        1 MOL      0.208669
     29 H9          2.2230   -5.9960    0.5460 h1        1 MOL      0.062229
     30 H10         0.2210   -4.5100   -1.3370 hc        1 MOL     -0.034180
     31 H11        -0.1980   -5.1370    0.2690 hc        1 MOL     -0.034180
     32 H12         0.1940   -7.4150   -0.4920 hc        1 MOL     -0.065180
     33 H13         0.9170   -6.8790   -1.8650 hc        1 MOL     -0.065180
     34 H14        -1.4330   -5.7930   -2.5380 hc        1 MOL      0.074320
     35 H15        -2.0140   -6.5250   -0.9450 hc        1 MOL      0.074320
     36 H16        -1.2610   -8.6470   -1.8250 hx        1 MOL      0.102960
     37 H17        -1.2990   -7.9480   -3.5150 hx        1 MOL      0.102960
     38 H18        -3.6620   -7.2280   -2.8590 hn        1 MOL      0.229476
     39 H19        -3.5100   -8.8530   -2.8100 hn        1 MOL      0.229476
     40 H20        -3.5410   -7.9460   -1.4860 hn        1 MOL      0.229476
     41 N4          3.7540   -3.9540   -1.3380 n         1 MOL     -0.228363
     42 C13         5.0290   -3.8590   -2.0980 c3        1 MOL      0.105810
     43 C14         6.2140   -3.3200   -1.1900 c         1 MOL      0.303967
     44 O6          7.3920   -3.2190   -1.5510 o         1 MOL     -0.468904
     45 C15         4.8230   -2.9120   -3.3280 c3        1 MOL     -0.413476
     46 C16         4.0770   -1.6050   -3.0220 c         1 MOL      0.968054
     47 O7          2.8570   -1.4580   -3.3320 o         1 MOL     -0.823206
     48 O8          4.5680   -0.7190   -2.3310 o         1 MOL     -0.823206
     49 H21         3.5910   -3.2550   -0.6390 hn        1 MOL     -0.213916
     50 H22         5.3820   -4.8070   -2.4870 h1        1 MOL      0.132935
     51 H23         4.2640   -3.4450   -4.0870 hc        1 MOL      0.112971
     52 H24         5.8120   -2.7680   -3.7670 hc        1 MOL      0.112971
     53 N5          5.8500   -2.9080    0.0790 n         1 MOL     -0.104958
     54 C17         6.8120   -2.4140    1.0750 c3        1 MOL     -0.300123
     55 C18         7.4430   -1.0440    0.7300 c         1 MOL      0.610428
     56 O9          8.5710   -0.7200    1.1480 o         1 MOL     -0.548486
     57 H25         4.8660   -3.0260    0.2560 hn        1 MOL      0.218248
     58 H26         7.6360   -3.1300    1.1470 h1        1 MOL      0.136592
     59 H27         6.2280   -2.4310    1.9970 h1        1 MOL      0.136592
     60 N6          6.7810   -0.3040   -0.1780 n         1 MOL     -0.335565
     61 C19         7.2590    1.0680   -0.6850 c3        1 MOL     -0.115194
     62 C20         6.0180    2.0580   -0.8280 c         1 MOL      0.642600
     63 O10         4.8620    1.5340   -0.6750 o         1 MOL     -0.564041
     64 C21         7.8460    0.9460   -2.0940 c3        1 MOL     -0.234241
     65 C22         9.1750    0.1780   -2.0930 c         1 MOL      0.742091
     66 N7          9.1560   -1.1260   -2.1800 n         1 MOL     -0.845072
     67 O11        10.2480    0.7920   -2.2390 o         1 MOL     -0.604203
     68 H28         5.8410   -0.4990   -0.4990 hn        1 MOL      0.420121
     69 H29         8.0220    1.4740   -0.0320 h1        1 MOL      0.105493
     70 H30         8.0630    1.9280   -2.5050 hc        1 MOL      0.062899
     71 H31         7.1830    0.4900   -2.8270 hc        1 MOL      0.062899
     72 H32         8.3340   -1.6750   -1.9900 hn        1 MOL      0.382079
     73 H33        10.0170   -1.6560   -2.1460 hn        1 MOL      0.382079
     74 N8          6.2230    3.3660   -0.9240 n         1 MOL     -0.482420
     75 C23         5.2530    4.4200   -1.1270 c3        1 MOL      0.093736
     76 C24         4.1590    4.6100   -0.0870 c         1 MOL      0.417782
     77 O12         4.3580    4.5380    1.1330 o         1 MOL     -0.470840
     78 H34         7.2020    3.6210   -0.8530 hn        1 MOL      0.324124
     79 H35         4.8240    4.2020   -2.1080 h1        1 MOL      0.046932
     80 H36         5.7360    5.3770   -1.3400 h1        1 MOL      0.046932
     81 N9          2.8870    4.8880   -0.4670 n         1 MOL     -0.421841
     82 C25         1.8330    4.9410    0.4550 c3        1 MOL      0.073173
     83 C26         1.3860    3.5020    0.8250 c         1 MOL      0.809894
     84 O13         1.7410    2.5830    0.1270 o         1 MOL     -0.617372
     85 C27         0.6430    5.6910   -0.1310 c3        1 MOL     -0.283805
     86 C28         0.9040    7.1320   -0.3720 ca        1 MOL      0.117331
     87 C29         0.8690    8.0670    0.6850 ca        1 MOL     -0.159011
     88 C30         1.1100    7.5960   -1.7110 ca        1 MOL     -0.159011
     89 C31         1.1280    9.4040    0.4740 ca        1 MOL     -0.224173
     90 C32         1.4140    8.9430   -1.8650 ca        1 MOL     -0.224173
     91 C33         1.5220    9.8220   -0.8110 ca        1 MOL      0.308775
     92 O14         1.8110   11.1130   -1.1220 oh        1 MOL     -0.490344
     93 H37         2.7910    5.1000   -1.4570 hn        1 MOL      0.243829
     94 H38         2.2100    5.4520    1.3500 h1        1 MOL      0.073754
     95 H39        -0.1960    5.6440    0.5620 hc        1 MOL      0.092076
     96 H40         0.3100    5.1770   -1.0280 hc        1 MOL      0.092076
     97 H41         0.6880    7.6630    1.6770 ha        1 MOL      0.126070
     98 H42         1.0370    6.9210   -2.5490 ha        1 MOL      0.126070
     99 H43         1.2490   10.1590    1.2410 ha        1 MOL      0.141863
    100 H44         1.6670    9.2500   -2.8700 ha        1 MOL      0.141863
    101 H45         1.6830   11.7100   -0.3750 ho        1 MOL      0.384041
    102 N10         0.4770    3.3200    1.7460 n         1 MOL     -0.729917
    103 C34         0.1000    2.0400    2.4370 c3        1 MOL     -0.017332
    104 C35        -0.1420    0.8040    1.5370 c         1 MOL      0.685191
    105 O15         0.8620    0.2840    0.9610 o         1 MOL     -0.523906
    106 C36         1.1350    1.7680    3.5800 c3        1 MOL      0.076571
    107 C37         0.7820    0.5520    4.4350 c3        1 MOL     -0.439658
    108 C38         1.2830    3.0170    4.4730 c3        1 MOL     -0.092023
    109 C39        -0.5310    0.5500    5.1770 c3        1 MOL     -0.033506
    110 H46         0.3400    4.1330    2.3380 hn        1 MOL      0.343733
    111 H47        -0.8640    2.3090    2.8560 h1        1 MOL      0.128848
    112 H48         2.0800    1.6690    3.0590 hc        1 MOL      0.072507
    113 H49         1.4850    0.5000    5.2740 hc        1 MOL      0.145072
    114 H50         0.9250   -0.3810    3.8940 hc        1 MOL      0.145072
    115 H51         0.2620    3.3490    4.6660 hc        1 MOL      0.034324
    116 H52         1.7880    2.7390    5.4000 hc        1 MOL      0.034324
    117 H53         1.8310    3.8470    4.0330 hc        1 MOL      0.034324
    118 H54        -0.6560    1.4950    5.7070 hc        1 MOL      0.022660
    119 H55        -1.3350    0.5740    4.4310 hc        1 MOL      0.022660
    120 H56        -0.6470   -0.3470    5.7930 hc        1 MOL      0.022660
    121 N11        -1.3500    0.2150    1.4330 n         1 MOL     -0.310929
    122 C40        -1.7270   -0.8050    0.5240 c3        1 MOL     -0.102636
    123 C41        -3.2070   -0.7560    0.0670 c         1 MOL      0.685756
    124 O16        -3.5540   -1.4920   -0.8920 o         1 MOL     -0.578271
    125 C42        -1.4700   -2.1320    1.1500 c3        1 MOL      0.440930
    126 O17        -2.0070   -2.2440    2.4450 oh        1 MOL     -0.721971
    127 H57        -2.0760    0.7790    1.8680 hn        1 MOL      0.137082
    128 H58        -1.0890   -0.7650   -0.3560 h1        1 MOL      0.007580
    129 H59        -0.3810   -2.1820    1.2190 h1        1 MOL     -0.064451
    130 H60        -1.9330   -2.8900    0.5160 h1        1 MOL     -0.064451
    131 H61        -1.3600   -2.6640    3.0290 ho        1 MOL      0.439833
    132 N12        -4.0860   -0.0700    0.7780 n         1 MOL     -0.634568
    133 C43        -5.5100   -0.0840    0.4450 c3        1 MOL      0.024631
    134 C44        -5.7690    0.5910   -0.9120 c         1 MOL      0.616562
    135 O18        -5.1170    1.4920   -1.3770 o         1 MOL     -0.567036
    136 C45        -6.2740    0.5530    1.6280 c3        1 MOL     -0.133498
    137 H62        -3.8500    0.3920    1.6400 hn        1 MOL      0.403116
    138 H63        -5.8890   -1.0970    0.4550 h1        1 MOL      0.146169
    139 H64        -5.9300    0.1210    2.5650 hc        1 MOL      0.052493
    140 H65        -6.0260    1.6010    1.7930 hc        1 MOL      0.052493
    141 H66        -7.3540    0.4170    1.6530 hc        1 MOL      0.052493
    142 N13        -6.8020    0.2040   -1.6760 n         1 MOL     -0.542505
    143 C46        -7.7840   -0.8120   -1.3050 c3        1 MOL      0.242153
    144 C47        -9.0810   -0.3110   -2.0380 c         1 MOL      0.371488
    145 O19        -9.0340    0.1330   -3.2190 o         1 MOL     -0.521763
    146 C48        -7.4140   -2.2010   -1.8420 c3        1 MOL     -0.253243
    147 H67        -6.9040    0.6880   -2.5550 hn        1 MOL      0.328665
    148 H68        -7.9540   -0.8330   -0.2350 h1        1 MOL     -0.004734
    149 H69        -6.5810   -2.6320   -1.2870 hc        1 MOL      0.067747
    150 H70        -8.2810   -2.8570   -1.8710 hc        1 MOL      0.067747
    151 H71        -7.1610   -2.0700   -2.8920 hc        1 MOL      0.067747
    152 N14       -10.2600   -0.3060   -1.4020 n         1 MOL     -0.233942
    153 C49       -10.6320   -0.6340   -0.0390 c3        1 MOL     -0.270954
    154 C50       -10.1950    0.5000    0.8930 c         1 MOL      0.586208
    155 O20        -9.7120    0.2700    1.9810 o         1 MOL     -0.572278
    156 C51       -12.1630   -0.9670    0.0300 c3        1 MOL      0.072025
    157 C52       -13.2500    0.0520   -0.1230 c3        1 MOL     -0.198370
    158 C53       -13.1690    0.7590   -1.4260 c         1 MOL      0.697163
    159 O21       -12.3860    1.6890   -1.6850 o         1 MOL     -0.655530
    160 O22       -13.8920    0.3730   -2.4060 o         1 MOL     -0.655530
    161 H72       -10.9720    0.0580   -2.0190 hn        1 MOL      0.271622
    162 H73       -10.0890   -1.5160    0.3010 h1        1 MOL      0.111504
    163 H74       -12.3730   -1.6100    0.8810 hc        1 MOL      0.025031
    164 H75       -12.3360   -1.6840   -0.7750 hc        1 MOL      0.025031
    165 H76       -13.2260    0.8250    0.6490 hc        1 MOL      0.038723
    166 H77       -14.2420   -0.4000   -0.0570 hc        1 MOL      0.038723
    167 N15       -10.1970    1.7360    0.3750 n         1 MOL     -0.316313
    168 C54        -9.4720    2.9110    1.0340 c3        1 MOL     -0.118629
    169 H78       -10.1970    3.6770    1.3100 h1        1 MOL      0.077719
    170 H79        -8.9530    2.5640    1.9270 h1        1 MOL      0.077719
    171 H80        -8.7500    3.3310    0.3340 h1        1 MOL      0.077719
    172 H81       -10.5460    1.7930   -0.5680 hn        1 MOL      0.256855
    173 Ca1         2.5550    0.3410   -1.0740 Ca        1 MOL      1.815752
    174 O23         1.0130   -2.0230   -1.5080 oh        1 MOL     -0.890444
    175 H82         1.6790   -2.2470   -2.1460 ho        1 MOL      0.437764
    176 H83         0.1890   -2.1060   -1.9950 ho        1 MOL      0.437764
    177 O24         3.2890    2.1660   -3.1830 oh        1 MOL     -0.890444
    178 H84         4.0020    2.0030   -3.7950 ho        1 MOL      0.437764
    179 H85         3.0080    3.0610   -3.3740 ho        1 MOL      0.437764
    180 O25         0.1170    0.9710   -2.0500 oh        1 MOL     -0.890444
    181 H86        -0.5250    1.6870   -2.0820 ho        1 MOL      0.437764
    182 H87        -0.1830    0.3660   -2.7280 ho        1 MOL      0.437764
@<TRIPOS>BOND
     1    1    2 1   
     2    1    4 1   
     3    1    5 1   
     4    1    6 1   
     5    2    3 2   
     6    2    7 1   
     7    7    8 1   
     8    7   15 1   
     9    8    9 1   
    10    8   11 1   
    11    8   16 1   
    12    9   10 2   
    13    9   19 1   
    14   11   12 1   
    15   11   17 1   
    16   11   18 1   
    17   12   13 1   
    18   12   14 1   
    19   19   20 1   
    20   19   28 1   
    21   20   21 1   
    22   20   23 1   
    23   20   29 1   
    24   21   22 2   
    25   21   41 1   
    26   23   24 1   
    27   23   30 1   
    28   23   31 1   
    29   24   25 1   
    30   24   32 1   
    31   24   33 1   
    32   25   26 1   
    33   25   34 1   
    34   25   35 1   
    35   26   27 1   
    36   26   36 1   
    37   26   37 1   
    38   27   38 1   
    39   27   39 1   
    40   27   40 1   
    41   41   42 1   
    42   41   49 1   
    43   42   43 1   
    44   42   45 1   
    45   42   50 1   
    46   43   44 2   
    47   43   53 1   
    48   45   46 1   
    49   45   51 1   
    50   45   52 1   
    51   46   47 1   
    52   46   48 1   
    53   53   54 1   
    54   53   57 1   
    55   54   55 1   
    56   54   58 1   
    57   54   59 1   
    58   55   56 2   
    59   55   60 1   
    60   60   61 1   
    61   60   68 1   
    62   61   62 1   
    63   61   64 1   
    64   61   69 1   
    65   62   63 2   
    66   62   74 1   
    67   64   65 1   
    68   64   70 1   
    69   64   71 1   
    70   65   66 1   
    71   65   67 2   
    72   66   72 1   
    73   66   73 1   
    74   74   75 1   
    75   74   78 1   
    76   75   76 1   
    77   75   79 1   
    78   75   80 1   
    79   76   77 2   
    80   76   81 1   
    81   81   82 1   
    82   81   93 1   
    83   82   83 1   
    84   82   85 1   
    85   82   94 1   
    86   83   84 2   
    87   83  102 1   
    88   85   86 1   
    89   85   95 1   
    90   85   96 1   
    91   86   87 ar  
    92   86   88 ar  
    93   87   89 ar  
    94   87   97 1   
    95   88   90 ar  
    96   88   98 1   
    97   89   91 ar  
    98   89   99 1   
    99   90   91 ar  
   100   90  100 1   
   101   91   92 1   
   102   92  101 1   
   103  102  103 1   
   104  102  110 1   
   105  103  104 1   
   106  103  106 1   
   107  103  111 1   
   108  104  105 2   
   109  104  121 1   
   110  106  107 1   
   111  106  108 1   
   112  106  112 1   
   113  107  109 1   
   114  107  113 1   
   115  107  114 1   
   116  108  115 1   
   117  108  116 1   
   118  108  117 1   
   119  109  118 1   
   120  109  119 1   
   121  109  120 1   
   122  121  122 1   
   123  121  127 1   
   124  122  123 1   
   125  122  125 1   
   126  122  128 1   
   127  123  124 2   
   128  123  132 1   
   129  125  126 1   
   130  125  129 1   
   131  125  130 1   
   132  126  131 1   
   133  132  133 1   
   134  132  137 1   
   135  133  134 1   
   136  133  136 1   
   137  133  138 1   
   138  134  135 2   
   139  134  142 1   
   140  136  139 1   
   141  136  140 1   
   142  136  141 1   
   143  142  143 1   
   144  142  147 1   
   145  143  144 1   
   146  143  146 1   
   147  143  148 1   
   148  144  145 2   
   149  144  152 1   
   150  146  149 1   
   151  146  150 1   
   152  146  151 1   
   153  152  153 1   
   154  152  161 1   
   155  153  154 1   
   156  153  156 1   
   157  153  162 1   
   158  154  155 2   
   159  154  167 1   
   160  156  157 1   
   161  156  163 1   
   162  156  164 1   
   163  157  158 1   
   164  157  165 1   
   165  157  166 1   
   166  158  159 1   
   167  158  160 1   
   168  167  168 1   
   169  167  172 1   
   170  168  169 1   
   171  168  170 1   
   172  168  171 1   
   173  174  175 1   
   174  174  176 1   
   175  177  178 1   
   176  177  179 1   
   177  180  181 1   
   178  180  182 1   
@<TRIPOS>SUBSTRUCTURE
     1 MOL         1 TEMP              0 ****  ****    0 ROOT
