@<TRIPOS>MOLECULE
MOL
  188   182     1     0     0
SMALL
resp


@<TRIPOS>ATOM
      1 C1         -6.5160    1.1520    3.7230 c3        1 MOL     -0.313292
      2 C2         -6.8750    0.1340    2.6100 c         1 MOL      0.670922
      3 O1         -6.1630   -0.0680    1.6190 o         1 MOL     -0.648671
      4 H1         -5.4560    1.3970    3.6600 hc        1 MOL      0.078812
      5 H2         -7.1060    2.0580    3.5930 hc        1 MOL      0.078812
      6 H3         -6.7300    0.7150    4.6990 hc        1 MOL      0.078812
      7 N1         -7.9820   -0.5860    2.7070 n         1 MOL     -0.576471
      8 C3         -8.3880   -1.6420    1.8230 c3        1 MOL      0.468975
      9 C4         -8.5010   -1.0650    0.3240 c         1 MOL      0.391148
     10 O2         -8.2610   -1.8030   -0.6420 o         1 MOL     -0.412105
     11 C5         -7.5280   -2.9430    2.0400 c3        1 MOL     -0.512216
     12 C6         -8.0950   -4.1260    1.2570 c         1 MOL      0.689560
     13 O3         -7.4040   -4.9590    0.6210 o         1 MOL     -0.622875
     14 O4         -9.3670   -4.2150    1.0900 o         1 MOL     -0.622875
     15 H4         -8.4840   -0.3260    3.5400 hn        1 MOL      0.276949
     16 H5         -9.4230   -1.9370    1.9870 h1        1 MOL     -0.047487
     17 H6         -7.6100   -3.1820    3.1060 hc        1 MOL      0.140448
     18 H7         -6.5020   -2.6830    1.7700 hc        1 MOL      0.140448
     19 N2         -8.8960    0.2070    0.2530 n         1 MOL     -0.403129
     20 C7         -8.9020    1.0880   -0.9560 c3        1 MOL     -0.056485
     21 C8         -7.4820    1.3010   -1.6190 c         1 MOL      0.547207
     22 O5         -7.4160    1.8370   -2.7250 o         1 MOL     -0.538625
     23 C9         -9.6840    2.3900   -0.7960 c3        1 MOL     -0.016277
     24 C10        -9.0340    3.3730    0.2180 c3        1 MOL      0.039345
     25 C11        -9.8770    4.6560    0.4530 c3        1 MOL      0.121898
     26 C12        -9.0230    5.6900    1.2680 c3        1 MOL      0.026822
     27 N3         -9.6310    6.9700    1.5120 n4        1 MOL     -0.019759
     28 H8         -9.2060    0.6770    1.0880 hn        1 MOL      0.240667
     29 H9         -9.4710    0.4790   -1.6500 h1        1 MOL      0.142093
     30 H10       -10.6870    2.1460   -0.4570 hc        1 MOL      0.034867
     31 H11        -9.7090    2.9000   -1.7620 hc        1 MOL      0.034867
     32 H12        -8.1010    3.7660   -0.2090 hc        1 MOL      0.001227
     33 H13        -8.8250    2.8430    1.1460 hc        1 MOL      0.001227
     34 H14       -10.6610    4.2890    1.1110 hc        1 MOL     -0.029541
     35 H15       -10.2340    4.9830   -0.5250 hc        1 MOL     -0.029541
     36 H16        -8.0560    5.8540    0.7780 hx        1 MOL      0.024057
     37 H17        -8.9420    5.3390    2.2920 hx        1 MOL      0.024057
     38 H18        -9.0310    7.6630    1.9340 hn        1 MOL      0.143291
     39 H19       -10.0560    7.2870    0.6500 hn        1 MOL      0.143291
     40 H20       -10.3370    6.8150    2.2180 hn        1 MOL      0.143291
     41 N4         -6.3670    0.8220   -1.0450 n         1 MOL     -0.475567
     42 C13        -5.0570    1.1230   -1.6700 c3        1 MOL     -0.033688
     43 C14        -4.8670    0.3920   -2.9670 c         1 MOL      0.611994
     44 O6         -5.5500   -0.6090   -3.1920 o         1 MOL     -0.452196
     45 C15        -4.0290    0.8630   -0.5980 c3        1 MOL     -0.112128
     46 C16        -2.5580    1.1150   -1.0320 c         1 MOL      0.591955
     47 O7         -1.8420    2.1110   -0.7600 o         1 MOL     -0.736171
     48 O8         -1.9470    0.2300   -1.6190 o         1 MOL     -0.736171
     49 H21        -6.4300    0.2180   -0.2410 hn        1 MOL      0.272263
     50 H22        -5.1430    2.1960   -1.7990 h1        1 MOL      0.053555
     51 H23        -4.0350   -0.1780   -0.2750 hc        1 MOL      0.104146
     52 H24        -4.2340    1.5210    0.2470 hc        1 MOL      0.104146
     53 N5         -3.9450    0.8550   -3.7990 n         1 MOL     -0.476999
     54 C17        -3.5290    0.1750   -5.0400 c3        1 MOL     -0.024675
     55 C18        -2.9120   -1.2440   -4.8680 c         1 MOL      0.537411
     56 O9         -3.1100   -1.9910   -5.8150 o         1 MOL     -0.539985
     57 H25        -3.4500    1.6980   -3.5460 hn        1 MOL      0.306145
     58 H26        -2.7840    0.8010   -5.5210 h1        1 MOL      0.062330
     59 H27        -4.4010    0.0210   -5.6680 h1        1 MOL      0.062330
     60 N6         -2.4450   -1.6270   -3.7170 n         1 MOL     -0.309799
     61 C19        -1.9220   -2.9300   -3.4210 c3        1 MOL     -0.045408
     62 C20        -2.1750   -3.4220   -1.9670 c         1 MOL      0.377800
     63 O10        -1.4990   -4.3630   -1.4780 o         1 MOL     -0.518403
     64 C21        -0.3970   -2.8940   -3.7750 c3        1 MOL     -0.324980
     65 C22         0.3800   -1.9010   -2.9920 c         1 MOL      0.620808
     66 N7          0.8290   -2.2540   -1.7450 n         1 MOL     -0.661683
     67 O11         0.6540   -0.7430   -3.4090 o         1 MOL     -0.650926
     68 H28        -2.3090   -1.0400   -2.9090 hn        1 MOL      0.268618
     69 H29        -2.3430   -3.6570   -4.1340 h1        1 MOL      0.155017
     70 H30        -0.3520   -2.5610   -4.8130 hc        1 MOL      0.137237
     71 H31         0.0510   -3.8830   -3.6840 hc        1 MOL      0.137237
     72 H32         0.4820   -3.1140   -1.3470 hn        1 MOL      0.307880
     73 H33         1.4830   -1.6290   -1.3010 hn        1 MOL      0.307880
     74 N8         -3.1070   -2.8270   -1.2690 n         1 MOL      0.038600
     75 C23        -3.6200   -3.2630    0.0160 c3        1 MOL     -0.358966
     76 C24        -2.8610   -2.7160    1.1570 c         1 MOL      0.593087
     77 O12        -3.1460   -3.1230    2.3150 o         1 MOL     -0.539520
     78 H34        -3.6340   -2.1080   -1.7460 hn        1 MOL      0.083493
     79 H35        -3.5670   -4.3490   -0.0330 h1        1 MOL      0.200291
     80 H36        -4.6600   -2.9260    0.0560 h1        1 MOL      0.200291
     81 N9         -1.9440   -1.7830    0.9670 n         1 MOL     -0.309734
     82 C25        -1.1990   -1.0850    2.0490 c3        1 MOL     -0.095057
     83 C26         0.2330   -0.6000    1.5740 c         1 MOL      0.618894
     84 O13         0.4720   -0.0540    0.4800 o         1 MOL     -0.611961
     85 C27        -2.0510    0.1670    2.5130 c3        1 MOL     -0.425367
     86 C28        -1.3470    1.1210    3.4720 ca        1 MOL      0.262836
     87 C29        -1.2590    0.8030    4.7880 ca        1 MOL     -0.337642
     88 C30        -0.6750    2.2630    3.0140 ca        1 MOL     -0.337642
     89 C31        -0.7120    1.7090    5.7550 ca        1 MOL     -0.111244
     90 C32         0.0420    3.0430    3.9400 ca        1 MOL     -0.111244
     91 C33        -0.0690    2.8470    5.3030 ca        1 MOL      0.195696
     92 O14         0.4500    3.7430    6.1890 oh        1 MOL     -0.439643
     93 H37        -1.7220   -1.4920    0.0200 hn        1 MOL      0.131700
     94 H38        -0.9630   -1.6840    2.9310 h1        1 MOL      0.082337
     95 H39        -2.9160   -0.2370    3.0340 hc        1 MOL      0.210473
     96 H40        -2.3840    0.7340    1.6390 hc        1 MOL      0.210473
     97 H41        -1.6570   -0.1180    5.1680 ha        1 MOL      0.176397
     98 H42        -0.7360    2.4980    1.9650 ha        1 MOL      0.176397
     99 H43        -0.7460    1.5040    6.8070 ha        1 MOL      0.127784
    100 H44         0.4620    3.9870    3.6400 ha        1 MOL      0.127784
    101 H45         0.6740    4.5200    5.6680 ho        1 MOL      0.346625
    102 N10         1.2290   -0.8560    2.4710 n         1 MOL     -0.436666
    103 C34         2.6580   -0.5250    2.1870 c3        1 MOL     -0.032682
    104 C35         3.3720   -1.4090    1.0860 c         1 MOL      0.363121
    105 O15         4.3160   -0.9810    0.3730 o         1 MOL     -0.535334
    106 C36         3.4640   -0.2370    3.4810 c3        1 MOL     -0.074580
    107 C37         2.8300    0.9340    4.3120 c3        1 MOL      0.006163
    108 C38         5.0090    0.0040    3.2050 c3        1 MOL     -0.388828
    109 C39         2.9730    2.3180    3.7500 c3        1 MOL     -0.127161
    110 H46         0.9290   -1.2520    3.3560 hn        1 MOL      0.296515
    111 H47         2.6450    0.4680    1.7400 h1        1 MOL      0.233066
    112 H48         3.4950   -1.1840    4.0340 hc        1 MOL      0.029719
    113 H49         3.3390    0.8280    5.2690 hc        1 MOL      0.057944
    114 H50         1.7710    0.7290    4.4860 hc        1 MOL      0.057944
    115 H51         5.6290   -0.8580    3.4330 hc        1 MOL      0.125644
    116 H52         5.2580    0.4340    2.2420 hc        1 MOL      0.125644
    117 H53         5.2580    0.8250    3.8740 hc        1 MOL      0.125644
    118 H54         2.3590    2.3930    2.8470 hc        1 MOL      0.021800
    119 H55         2.6720    3.0440    4.5030 hc        1 MOL      0.021800
    120 H56         4.0180    2.4550    3.4770 hc        1 MOL      0.021800
    121 N11         2.9990   -2.6790    1.0980 n         1 MOL     -0.212121
    122 C40         3.7680   -3.7660    0.5340 c3        1 MOL      0.037580
    123 C41         5.2440   -3.9450    0.8100 c         1 MOL      0.299881
    124 O16         6.0030   -4.5640    0.0190 o         1 MOL     -0.479435
    125 C42         3.0500   -5.1760    0.7400 c3        1 MOL      0.254057
    126 O17         1.7840   -5.1750    0.1310 oh        1 MOL     -0.546729
    127 H57         2.2160   -2.9450    1.6730 hn        1 MOL      0.194929
    128 H58         3.6250   -3.6040   -0.5390 h1        1 MOL      0.091362
    129 H59         2.9600   -5.3650    1.8010 h1        1 MOL      0.019063
    130 H60         3.8010   -5.8530    0.3180 h1        1 MOL      0.019063
    131 H61         1.2470   -5.0260    0.9030 ho        1 MOL      0.387973
    132 N12         5.7880   -3.3200    1.8160 n         1 MOL     -0.325918
    133 C43         7.2520   -3.3260    2.1250 c3        1 MOL      0.169775
    134 C44         8.0070   -2.6120    0.9660 c         1 MOL      0.536497
    135 O18         9.2230   -2.8750    0.8580 o         1 MOL     -0.523081
    136 C45         7.7480   -4.7140    2.4380 c3        1 MOL     -0.320958
    137 H62         5.1650   -2.7350    2.3560 hn        1 MOL      0.220504
    138 H63         7.3230   -2.6320    2.9700 h1        1 MOL      0.044876
    139 H64         7.3030   -5.0660    3.3650 hc        1 MOL      0.104905
    140 H65         7.5130   -5.4970    1.7090 hc        1 MOL      0.104905
    141 H66         8.8270   -4.6400    2.5530 hc        1 MOL      0.104905
    142 N13         7.3470   -1.7030    0.1890 n         1 MOL     -0.595920
    143 C46         7.9540   -0.9680   -0.8920 c3        1 MOL      0.606160
    144 C47         8.0290    0.5190   -0.4950 c         1 MOL      0.186011
    145 O19         7.1550    1.1570    0.0620 o         1 MOL     -0.398581
    146 C48         7.2290   -1.2490   -2.2260 c3        1 MOL     -0.267581
    147 H67         6.3350   -1.6400    0.2210 hn        1 MOL      0.273145
    148 H68         8.9730   -1.3110   -1.0070 h1        1 MOL     -0.041742
    149 H69         6.1780   -0.9790   -2.1120 hc        1 MOL      0.070099
    150 H70         7.6990   -0.6360   -2.9930 hc        1 MOL      0.070099
    151 H71         7.3750   -2.3050   -2.4920 hc        1 MOL      0.070099
    152 N14         9.1660    1.1350   -0.7110 n         1 MOL     -0.445875
    153 C49         9.5660    2.5540   -0.6190 c3        1 MOL      0.015975
    154 C50         9.8010    2.9200    0.8370 c         1 MOL      0.362917
    155 O20         9.7430    4.1510    1.1070 o         1 MOL     -0.511583
    156 C51         8.7810    3.5930   -1.4360 c3        1 MOL      0.173365
    157 C52         8.1230    3.2850   -2.7730 c3        1 MOL     -0.269172
    158 C53         9.1610    3.5130   -3.8810 c         1 MOL      0.693631
    159 O21         9.3650    4.6790   -4.3330 o         1 MOL     -0.657531
    160 O22         9.7810    2.5470   -4.3750 o         1 MOL     -0.657531
    161 H72         9.8490    0.5290   -1.1400 hn        1 MOL      0.271417
    162 H73        10.5310    2.5480   -1.1250 h1        1 MOL      0.101783
    163 H74         9.3970    4.4770   -1.5670 hc        1 MOL     -0.000794
    164 H75         7.9300    3.8250   -0.7950 hc        1 MOL     -0.000794
    165 H76         7.2210    3.8860   -2.8160 hc        1 MOL      0.032282
    166 H77         7.8450    2.2320   -2.8460 hc        1 MOL      0.032282
    167 N15        10.0320    2.0370    1.8330 n         1 MOL     -0.164488
    168 C54        10.2280    2.1640    3.2790 c3        1 MOL     -0.234592
    169 H78        10.9270    2.9750    3.4800 h1        1 MOL      0.106105
    170 H79         9.2730    2.3810    3.7580 h1        1 MOL      0.106105
    171 H80        10.6310    1.2320    3.6750 h1        1 MOL      0.106105
    172 H81        10.1980    1.0720    1.5550 hn        1 MOL      0.198664
    173 Ca1         0.4390    1.4330   -2.0190 Ca        1 MOL      1.852295
    174 O23        -0.8060    1.7510   -4.4120 oh        1 MOL     -0.864787
    175 O24         2.3460    2.7270   -0.3690 oh        1 MOL     -0.864787
    176 H82        -0.9890    2.5920   -4.8370 ho        1 MOL      0.430914
    177 H83         1.9670    3.4680    0.1030 ho        1 MOL      0.430914
    178 H84        -0.5640    1.1710   -5.1410 ho        1 MOL      0.430914
    179 H85         3.2780    2.7760   -0.2020 ho        1 MOL      0.430914
    180 O25         2.1780    2.4150   -3.7920 oh        1 MOL     -0.864787
    181 H86         3.0650    2.7170   -3.5810 ho        1 MOL      0.430914
    182 H87         2.1120    2.5260   -4.7390 ho        1 MOL      0.430914
    183 O26        -0.2550    3.9320   -2.3730 oh        1 MOL     -0.864787
    184 H88        -0.6220    4.5240   -1.7150 ho        1 MOL      0.430914
    185 H89        -0.3170    4.4070   -3.1970 ho        1 MOL      0.430914
    186 O27         2.6950   -0.0200   -1.6330 oh        1 MOL     -0.864787
    187 H90         3.0940   -0.5400   -2.3250 ho        1 MOL      0.430914
    188 H91         3.1740   -0.2650   -0.8330 ho        1 MOL      0.430914
@<TRIPOS>BOND
     1    1    2 1   
     2    1    4 1   
     3    1    5 1   
     4    1    6 1   
     5    2    3 2   
     6    2    7 1   
     7    7    8 1   
     8    7   15 1   
     9    8    9 1   
    10    8   11 1   
    11    8   16 1   
    12    9   10 2   
    13    9   19 1   
    14   11   12 1   
    15   11   17 1   
    16   11   18 1   
    17   12   13 1   
    18   12   14 1   
    19   19   20 1   
    20   19   28 1   
    21   20   21 1   
    22   20   23 1   
    23   20   29 1   
    24   21   22 2   
    25   21   41 1   
    26   23   24 1   
    27   23   30 1   
    28   23   31 1   
    29   24   25 1   
    30   24   32 1   
    31   24   33 1   
    32   25   26 1   
    33   25   34 1   
    34   25   35 1   
    35   26   27 1   
    36   26   36 1   
    37   26   37 1   
    38   27   38 1   
    39   27   39 1   
    40   27   40 1   
    41   41   42 1   
    42   41   49 1   
    43   42   43 1   
    44   42   45 1   
    45   42   50 1   
    46   43   44 2   
    47   43   53 1   
    48   45   46 1   
    49   45   51 1   
    50   45   52 1   
    51   46   47 1   
    52   46   48 1   
    53   53   54 1   
    54   53   57 1   
    55   54   55 1   
    56   54   58 1   
    57   54   59 1   
    58   55   56 2   
    59   55   60 1   
    60   60   61 1   
    61   60   68 1   
    62   61   62 1   
    63   61   64 1   
    64   61   69 1   
    65   62   63 2   
    66   62   74 1   
    67   64   65 1   
    68   64   70 1   
    69   64   71 1   
    70   65   66 1   
    71   65   67 2   
    72   66   72 1   
    73   66   73 1   
    74   74   75 1   
    75   74   78 1   
    76   75   76 1   
    77   75   79 1   
    78   75   80 1   
    79   76   77 2   
    80   76   81 1   
    81   81   82 1   
    82   81   93 1   
    83   82   83 1   
    84   82   85 1   
    85   82   94 1   
    86   83   84 2   
    87   83  102 1   
    88   85   86 1   
    89   85   95 1   
    90   85   96 1   
    91   86   87 ar  
    92   86   88 ar  
    93   87   89 ar  
    94   87   97 1   
    95   88   90 ar  
    96   88   98 1   
    97   89   91 ar  
    98   89   99 1   
    99   90   91 ar  
   100   90  100 1   
   101   91   92 1   
   102   92  101 1   
   103  102  103 1   
   104  102  110 1   
   105  103  104 1   
   106  103  106 1   
   107  103  111 1   
   108  104  105 2   
   109  104  121 1   
   110  106  107 1   
   111  106  108 1   
   112  106  112 1   
   113  107  109 1   
   114  107  113 1   
   115  107  114 1   
   116  108  115 1   
   117  108  116 1   
   118  108  117 1   
   119  109  118 1   
   120  109  119 1   
   121  109  120 1   
   122  121  122 1   
   123  121  127 1   
   124  122  123 1   
   125  122  125 1   
   126  122  128 1   
   127  123  124 2   
   128  123  132 1   
   129  125  126 1   
   130  125  129 1   
   131  125  130 1   
   132  126  131 1   
   133  132  133 1   
   134  132  137 1   
   135  133  134 1   
   136  133  136 1   
   137  133  138 1   
   138  134  135 2   
   139  134  142 1   
   140  136  139 1   
   141  136  140 1   
   142  136  141 1   
   143  142  143 1   
   144  142  147 1   
   145  143  144 1   
   146  143  146 1   
   147  143  148 1   
   148  144  145 2   
   149  144  152 1   
   150  146  149 1   
   151  146  150 1   
   152  146  151 1   
   153  152  153 1   
   154  152  161 1   
   155  153  154 1   
   156  153  156 1   
   157  153  162 1   
   158  154  155 2   
   159  154  167 1   
   160  156  157 1   
   161  156  163 1   
   162  156  164 1   
   163  157  158 1   
   164  157  165 1   
   165  157  166 1   
   166  158  159 1   
   167  158  160 1   
   168  167  168 1   
   169  167  172 1   
   170  168  169 1   
   171  168  170 1   
   172  168  171 1   
   173  174  176 1   
   174  174  178 1   
   175  175  177 1   
   176  175  179 1   
   177  180  181 1   
   178  180  182 1   
   179  183  184 1   
   180  183  185 1   
   181  186  187 1   
   182  186  188 1   
@<TRIPOS>SUBSTRUCTURE
     1 MOL         1 TEMP              0 ****  ****    0 ROOT
