@<TRIPOS>MOLECULE
MOL
  195   189     1     0     0
SMALL
resp


@<TRIPOS>ATOM
      1 C1          7.6910    6.6310   -3.6590 c3        1 MOL     -0.387470
      2 C2          6.5130    6.2120   -2.7220 c         1 MOL      0.672079
      3 O1          6.1710    5.0210   -2.5700 o         1 MOL     -0.558172
      4 H1          8.0720    7.6040   -3.3480 hc        1 MOL      0.106658
      5 H2          8.4890    5.8920   -3.5930 hc        1 MOL      0.106658
      6 H3          7.3340    6.6920   -4.6870 hc        1 MOL      0.106658
      7 N1          5.7650    7.1320   -2.0490 n         1 MOL     -0.568891
      8 C3          4.5890    6.8100   -1.1850 c3        1 MOL      0.145518
      9 C4          4.8080    5.6360   -0.2150 c         1 MOL      0.583326
     10 O2          3.9550    4.7220    0.0270 o         1 MOL     -0.555272
     11 C5          3.2750    6.6280   -2.0050 c3        1 MOL     -0.199597
     12 C6          2.8580    7.8740   -2.8740 c         1 MOL      0.697802
     13 O3          2.0360    7.5540   -3.7710 o         1 MOL     -0.667501
     14 O4          3.2400    9.0260   -2.6310 o         1 MOL     -0.667501
     15 H4          6.0840    8.0880   -2.1580 hn        1 MOL      0.296986
     16 H5          4.3680    7.6850   -0.5710 h1        1 MOL      0.034516
     17 H6          2.5240    6.5390   -1.2230 hc        1 MOL      0.071243
     18 H7          3.2130    5.7690   -2.6740 hc        1 MOL      0.071243
     19 N2          5.9980    5.7210    0.3790 n         1 MOL     -0.604973
     20 C7          6.6160    4.8820    1.4720 c3        1 MOL      0.271099
     21 C8          6.7350    3.3580    1.4900 c         1 MOL      0.345300
     22 O5          7.6450    2.8330    2.1450 o         1 MOL     -0.561164
     23 C9          5.8310    5.2360    2.8160 c3        1 MOL     -0.286844
     24 C10         6.3820    4.6940    4.1680 c3        1 MOL     -0.028681
     25 C11         7.8970    4.9450    4.4650 c3        1 MOL      0.004702
     26 C12         8.3220    4.3120    5.7950 c3        1 MOL     -0.109010
     27 N3          8.1060    2.8430    5.8040 n4        1 MOL     -0.054682
     28 H8          6.6590    6.3400   -0.0410 hn        1 MOL      0.285025
     29 H9          7.6150    5.3330    1.5170 h1        1 MOL      0.042768
     30 H10         4.8030    4.8950    2.6470 hc        1 MOL      0.115620
     31 H11         5.7830    6.3280    2.8990 hc        1 MOL      0.115620
     32 H12         6.2300    3.6090    4.1300 hc        1 MOL      0.026721
     33 H13         5.7630    5.0050    5.0170 hc        1 MOL      0.026721
     34 H14         8.0550    6.0270    4.4020 hc        1 MOL      0.055879
     35 H15         8.5680    4.5530    3.7020 hc        1 MOL      0.055879
     36 H16         7.6740    4.7150    6.5740 hx        1 MOL      0.090584
     37 H17         9.3710    4.5810    5.9780 hx        1 MOL      0.090584
     38 H18         8.3560    2.4470    4.9080 hn        1 MOL      0.237454
     39 H19         8.4530    2.3110    6.5840 hn        1 MOL      0.237454
     40 H20         7.1210    2.5980    5.8570 hn        1 MOL      0.237454
     41 N4          5.7880    2.6610    0.8590 n         1 MOL     -0.394164
     42 C13         5.6090    1.2010    0.7510 c3        1 MOL      0.319835
     43 C14         5.2400    0.7320   -0.6590 c         1 MOL      0.477587
     44 O6          4.2410    1.1460   -1.1290 o         1 MOL     -0.501449
     45 C15         4.5290    0.8150    1.7550 c3        1 MOL     -0.248689
     46 C16         4.2350   -0.6880    1.7060 c         1 MOL      0.645575
     47 O7          5.1890   -1.4250    1.4600 o         1 MOL     -0.693248
     48 O8          3.1790   -1.1230    2.1960 o         1 MOL     -0.693248
     49 H21         5.1600    3.2200    0.3000 hn        1 MOL      0.318812
     50 H22         6.5260    0.6880    1.0540 h1        1 MOL      0.023532
     51 H23         3.6060    1.3740    1.6480 hc        1 MOL      0.069535
     52 H24         4.8070    0.9740    2.7990 hc        1 MOL      0.069535
     53 N5          5.9850   -0.1270   -1.3860 n         1 MOL     -0.471432
     54 C17         7.2090   -0.7730   -1.0250 c3        1 MOL      0.008777
     55 C18         7.3090   -2.2640   -1.3720 c         1 MOL      0.541459
     56 O9          8.0200   -2.6090   -2.3130 o         1 MOL     -0.538937
     57 H25         5.6910   -0.2840   -2.3360 hn        1 MOL      0.317582
     58 H26         7.3180   -0.7370    0.0570 h1        1 MOL      0.052374
     59 H27         8.0890   -0.2580   -1.4070 h1        1 MOL      0.052374
     60 N6          6.5600   -3.0970   -0.5810 n         1 MOL     -0.381959
     61 C19         6.4500   -4.5460   -0.7790 c3        1 MOL     -0.089469
     62 C20         4.9770   -4.9470   -0.7080 c         1 MOL      0.508395
     63 O10         4.2150   -4.3420    0.0250 o         1 MOL     -0.706866
     64 C21         7.3480   -5.2620    0.2980 c3        1 MOL      0.009609
     65 C22         7.1710   -4.6350    1.6620 c         1 MOL      0.688709
     66 O11         6.1300   -4.6710    2.3200 o         1 MOL     -0.715880
     67 O12         8.1250   -3.9100    2.1010 o         1 MOL     -0.715880
     68 H28         6.1360   -2.6960    0.2340 hn        1 MOL      0.321260
     69 H29         6.7510   -4.7620   -1.8110 h1        1 MOL      0.075257
     70 H30         8.3980   -5.4120    0.0500 hc        1 MOL     -0.001513
     71 H31         7.0520   -6.2880    0.4730 hc        1 MOL     -0.001513
     72 N7          4.5970   -6.1440   -1.2390 n         1 MOL     -0.231499
     73 C23         3.1450   -6.5460   -1.1590 c3        1 MOL     -0.214729
     74 C24         2.1360   -5.6970   -1.9500 c         1 MOL      0.533385
     75 O13         0.9790   -6.0150   -1.8680 o         1 MOL     -0.569516
     76 H32         5.2430   -6.6840   -1.8040 hn        1 MOL      0.236809
     77 H33         2.8570   -6.5870   -0.1130 h1        1 MOL      0.108898
     78 H34         3.1220   -7.5430   -1.5950 h1        1 MOL      0.108898
     79 N8          2.5090   -4.6370   -2.6090 n         1 MOL     -0.227534
     80 C25         1.5860   -3.6020   -3.2110 c3        1 MOL      0.004185
     81 C26         0.9650   -2.6630   -2.2020 c         1 MOL      0.417795
     82 O14         1.4810   -2.4230   -1.0700 o         1 MOL     -0.453218
     83 C27         2.3260   -2.7540   -4.2610 c3        1 MOL      0.323165
     84 C28         3.4720   -1.9370   -3.6610 c3        1 MOL     -0.497456
     85 O15         2.8570   -3.6210   -5.2380 oh        1 MOL     -0.655238
     86 H35         3.5040   -4.5070   -2.7510 hn        1 MOL      0.195646
     87 H36         0.7890   -4.1220   -3.7480 h1        1 MOL      0.100306
     88 H37         1.6320   -2.0520   -4.7340 h1        1 MOL      0.015824
     89 H38         3.1870   -3.0500   -5.9310 ho        1 MOL      0.428786
     90 H39         4.0880   -1.6470   -4.5080 hc        1 MOL      0.142981
     91 H40         3.1540   -1.2140   -2.9140 hc        1 MOL      0.142981
     92 H41         4.1600   -2.6210   -3.1600 hc        1 MOL      0.142981
     93 N9         -0.1350   -1.9730   -2.6540 n         1 MOL     -0.292534
     94 C29        -0.6750   -0.7180   -2.0690 c3        1 MOL     -0.233996
     95 C30        -1.8430   -0.9400   -1.1250 c         1 MOL      0.449498
     96 O16        -2.2920    0.0700   -0.6470 o         1 MOL     -0.471502
     97 C31        -1.0100    0.2110   -3.2750 c3        1 MOL      0.297844
     98 C32        -1.8610   -0.3820   -4.3870 c3        1 MOL      0.142035
     99 C33         0.3530    0.6360   -3.8970 c3        1 MOL     -0.233721
    100 C34        -2.7110    0.5810   -5.1730 c3        1 MOL     -0.270958
    101 H42        -0.4130   -2.3930   -3.5270 hn        1 MOL      0.166821
    102 H43         0.2050   -0.3100   -1.5650 h1        1 MOL      0.186198
    103 H44        -1.4920    1.0830   -2.8360 hc        1 MOL      0.006163
    104 H45        -2.5700   -1.0660   -3.9180 hc        1 MOL     -0.030703
    105 H46        -1.2000   -0.9360   -5.0520 hc        1 MOL     -0.030703
    106 H47         0.9020   -0.1740   -4.3850 hc        1 MOL      0.057311
    107 H48         0.1000    1.3880   -4.6490 hc        1 MOL      0.057311
    108 H49         0.9610    1.1270   -3.1460 hc        1 MOL      0.057311
    109 H50        -3.4770    1.0470   -4.5520 hc        1 MOL      0.067657
    110 H51        -2.1050    1.3240   -5.6770 hc        1 MOL      0.067657
    111 H52        -3.1310   -0.0740   -5.9330 hc        1 MOL      0.067657
    112 N10        -2.3860   -2.1930   -0.9550 n         1 MOL     -0.336056
    113 C35        -3.5760   -2.4660   -0.1110 c3        1 MOL      0.043970
    114 C36        -4.8540   -2.9710   -0.8730 c         1 MOL      0.596004
    115 O17        -4.7730   -3.5760   -1.9260 o         1 MOL     -0.543979
    116 C37        -3.4040   -3.4660    1.0500 c3        1 MOL      0.309772
    117 C38        -2.3450   -3.0570    1.9820 c3        1 MOL     -0.215306
    118 O18        -4.6520   -3.6280    1.8020 oh        1 MOL     -0.629345
    119 H53        -1.9290   -2.9390   -1.4500 hn        1 MOL      0.214508
    120 H54        -3.8240   -1.5400    0.3920 h1        1 MOL      0.082462
    121 H55        -3.1300   -4.4470    0.6400 h1        1 MOL     -0.018609
    122 H56        -4.6170   -4.4220    2.3330 ho        1 MOL      0.379812
    123 H57        -2.6130   -2.1280    2.4860 hc        1 MOL      0.056183
    124 H58        -2.3540   -3.7530    2.8230 hc        1 MOL      0.056183
    125 H59        -1.3530   -3.1390    1.5490 hc        1 MOL      0.056183
    126 N11        -6.0510   -2.6530   -0.3430 n         1 MOL     -0.598584
    127 C39        -7.3310   -3.2050   -0.7250 c3        1 MOL      0.204979
    128 C40        -8.4700   -2.1900   -0.8240 c         1 MOL      0.497163
    129 O19        -9.2000   -2.1340   -1.8300 o         1 MOL     -0.567666
    130 C41        -7.7190   -4.3030    0.2110 c3        1 MOL      0.172867
    131 C42        -8.8780   -5.1440   -0.1360 c3        1 MOL     -0.246654
    132 O20        -7.8570   -3.8210    1.5530 oh        1 MOL     -0.630452
    133 H60        -6.0710   -2.1310    0.5190 hn        1 MOL      0.303403
    134 H61        -7.2190   -3.5380   -1.7480 h1        1 MOL      0.066720
    135 H62        -6.9450   -5.0660    0.1070 h1        1 MOL      0.033865
    136 H63        -7.5870   -4.5460    2.1230 ho        1 MOL      0.430897
    137 H64        -8.8440   -5.4500   -1.1800 hc        1 MOL      0.069778
    138 H65        -8.9590   -6.0070    0.5210 hc        1 MOL      0.069778
    139 H66        -9.8170   -4.6020   -0.0540 hc        1 MOL      0.069778
    140 N12        -8.6710   -1.5190    0.2650 n         1 MOL     -0.384739
    141 C43        -9.5610   -0.3550    0.2890 c3        1 MOL      0.169452
    142 C44        -8.9190    0.7510    1.1190 c         1 MOL      0.384055
    143 O21        -8.4310    0.4700    2.2230 o         1 MOL     -0.517537
    144 C45       -10.9180   -0.7830    0.8100 c3        1 MOL     -0.280268
    145 C46       -11.8430    0.4290    0.7950 c3        1 MOL     -0.059818
    146 C47       -13.1340    0.2040    1.4720 c3        1 MOL      0.212175
    147 C48       -13.8870    1.4920    1.3980 c3        1 MOL      0.021163
    148 N13       -15.0490    1.5950    2.3210 n4        1 MOL     -0.179290
    149 H67        -8.2760   -1.9440    1.0890 hn        1 MOL      0.283318
    150 H68        -9.6410   -0.0680   -0.7630 h1        1 MOL      0.053689
    151 H69       -10.8110   -1.1540    1.8280 hc        1 MOL      0.105330
    152 H70       -11.2300   -1.6410    0.2200 hc        1 MOL      0.105330
    153 H71       -12.1040    0.6520   -0.2400 hc        1 MOL      0.049716
    154 H72       -11.4590    1.3180    1.2910 hc        1 MOL      0.049716
    155 H73       -13.0470    0.0230    2.5420 hc        1 MOL     -0.038956
    156 H74       -13.7550   -0.6190    1.1220 hc        1 MOL     -0.038956
    157 H75       -14.3130    1.4860    0.3930 hx        1 MOL      0.045332
    158 H76       -13.1830    2.3020    1.6100 hx        1 MOL      0.045332
    159 H77       -15.5940    2.3820    1.9930 hn        1 MOL      0.221170
    160 H78       -15.5730    0.7290    2.2920 hn        1 MOL      0.221170
    161 H79       -14.7840    1.8370    3.2650 hn        1 MOL      0.221170
    162 N14        -8.8930    1.9040    0.5670 n         1 MOL     -0.277206
    163 C49        -8.2810    3.1170    1.2620 c3        1 MOL      0.109090
    164 C50        -6.7510    2.8840    1.4390 c         1 MOL      0.355947
    165 O22        -6.2360    3.1220    2.5610 o         1 MOL     -0.518035
    166 C51        -8.6640    4.3610    0.4940 c3        1 MOL     -0.082782
    167 C52        -8.0710    5.6510    0.9690 c3        1 MOL     -0.122023
    168 C53        -8.6600    6.9620    0.3750 c         1 MOL      0.690192
    169 O23        -7.8600    7.8100    0.0390 o         1 MOL     -0.666241
    170 O24        -9.9220    7.0710    0.2670 o         1 MOL     -0.666241
    171 H80        -9.4860    2.0730   -0.2280 hn        1 MOL      0.193691
    172 H81        -8.7770    3.2710    2.2190 h1        1 MOL      0.089420
    173 H82        -9.7370    4.3760    0.6810 hc        1 MOL      0.008231
    174 H83        -8.5100    4.1100   -0.5500 hc        1 MOL      0.008231
    175 H84        -7.0110    5.6330    0.7210 hc        1 MOL      0.040798
    176 H85        -8.1830    5.6260    2.0600 hc        1 MOL      0.040798
    177 N15        -5.8750    2.6570    0.3890 n         1 MOL     -0.322724
    178 C54        -6.1890    2.4960   -1.0410 c3        1 MOL     -0.017650
    179 H86        -5.3220    2.7830   -1.6370 h1        1 MOL      0.053122
    180 H87        -6.4390    1.4550   -1.2440 h1        1 MOL      0.053122
    181 H88        -7.0350    3.1320   -1.3020 h1        1 MOL      0.053122
    182 H89        -4.9490    2.4040    0.7060 hn        1 MOL      0.289858
    183 Ca1         3.7570   -3.5710    2.4340 Ca        1 MOL      1.813690
    184 O25         2.0720   -4.3360    4.3560 oh        1 MOL     -0.895907
    185 H90         1.6970   -4.0130    5.1740 ho        1 MOL      0.437558
    186 H91         1.8030   -5.2590    4.3210 ho        1 MOL      0.437558
    187 O26         1.4300   -3.9050    1.1060 oh        1 MOL     -0.895907
    188 H92         1.0710   -4.7830    0.9440 ho        1 MOL      0.437558
    189 H93         1.0380   -3.3560    0.4180 ho        1 MOL      0.437558
    190 O27         3.6130   -6.2490    2.6320 oh        1 MOL     -0.895907
    191 H94         4.2930   -6.9140    2.6260 ho        1 MOL      0.437558
    192 H95         2.8580   -6.6730    3.0360 ho        1 MOL      0.437558
    193 O28         5.1710   -2.2650    4.3760 oh        1 MOL     -0.895907
    194 H96         6.0540   -1.8960    4.3540 ho        1 MOL      0.437558
    195 H97         4.8870   -2.1720    5.2890 ho        1 MOL      0.437558
@<TRIPOS>BOND
     1    1    2 1   
     2    1    4 1   
     3    1    5 1   
     4    1    6 1   
     5    2    3 2   
     6    2    7 1   
     7    7    8 1   
     8    7   15 1   
     9    8    9 1   
    10    8   11 1   
    11    8   16 1   
    12    9   10 2   
    13    9   19 1   
    14   11   12 1   
    15   11   17 1   
    16   11   18 1   
    17   12   13 1   
    18   12   14 1   
    19   19   20 1   
    20   19   28 1   
    21   20   21 1   
    22   20   23 1   
    23   20   29 1   
    24   21   22 2   
    25   21   41 1   
    26   23   24 1   
    27   23   30 1   
    28   23   31 1   
    29   24   25 1   
    30   24   32 1   
    31   24   33 1   
    32   25   26 1   
    33   25   34 1   
    34   25   35 1   
    35   26   27 1   
    36   26   36 1   
    37   26   37 1   
    38   27   38 1   
    39   27   39 1   
    40   27   40 1   
    41   41   42 1   
    42   41   49 1   
    43   42   43 1   
    44   42   45 1   
    45   42   50 1   
    46   43   44 2   
    47   43   53 1   
    48   45   46 1   
    49   45   51 1   
    50   45   52 1   
    51   46   47 1   
    52   46   48 1   
    53   53   54 1   
    54   53   57 1   
    55   54   55 1   
    56   54   58 1   
    57   54   59 1   
    58   55   56 2   
    59   55   60 1   
    60   60   61 1   
    61   60   68 1   
    62   61   62 1   
    63   61   64 1   
    64   61   69 1   
    65   62   63 2   
    66   62   72 1   
    67   64   65 1   
    68   64   70 1   
    69   64   71 1   
    70   65   66 1   
    71   65   67 1   
    72   72   73 1   
    73   72   76 1   
    74   73   74 1   
    75   73   77 1   
    76   73   78 1   
    77   74   75 2   
    78   74   79 1   
    79   79   80 1   
    80   79   86 1   
    81   80   81 1   
    82   80   83 1   
    83   80   87 1   
    84   81   82 2   
    85   81   93 1   
    86   83   84 1   
    87   83   85 1   
    88   83   88 1   
    89   84   90 1   
    90   84   91 1   
    91   84   92 1   
    92   85   89 1   
    93   93   94 1   
    94   93  101 1   
    95   94   95 1   
    96   94   97 1   
    97   94  102 1   
    98   95   96 2   
    99   95  112 1   
   100   97   98 1   
   101   97   99 1   
   102   97  103 1   
   103   98  100 1   
   104   98  104 1   
   105   98  105 1   
   106   99  106 1   
   107   99  107 1   
   108   99  108 1   
   109  100  109 1   
   110  100  110 1   
   111  100  111 1   
   112  112  113 1   
   113  112  119 1   
   114  113  114 1   
   115  113  116 1   
   116  113  120 1   
   117  114  115 2   
   118  114  126 1   
   119  116  117 1   
   120  116  118 1   
   121  116  121 1   
   122  117  123 1   
   123  117  124 1   
   124  117  125 1   
   125  118  122 1   
   126  126  127 1   
   127  126  133 1   
   128  127  128 1   
   129  127  130 1   
   130  127  134 1   
   131  128  129 2   
   132  128  140 1   
   133  130  131 1   
   134  130  132 1   
   135  130  135 1   
   136  131  137 1   
   137  131  138 1   
   138  131  139 1   
   139  132  136 1   
   140  140  141 1   
   141  140  149 1   
   142  141  142 1   
   143  141  144 1   
   144  141  150 1   
   145  142  143 2   
   146  142  162 1   
   147  144  145 1   
   148  144  151 1   
   149  144  152 1   
   150  145  146 1   
   151  145  153 1   
   152  145  154 1   
   153  146  147 1   
   154  146  155 1   
   155  146  156 1   
   156  147  148 1   
   157  147  157 1   
   158  147  158 1   
   159  148  159 1   
   160  148  160 1   
   161  148  161 1   
   162  162  163 1   
   163  162  171 1   
   164  163  164 1   
   165  163  166 1   
   166  163  172 1   
   167  164  165 2   
   168  164  177 1   
   169  166  167 1   
   170  166  173 1   
   171  166  174 1   
   172  167  168 1   
   173  167  175 1   
   174  167  176 1   
   175  168  169 1   
   176  168  170 1   
   177  177  178 1   
   178  177  182 1   
   179  178  179 1   
   180  178  180 1   
   181  178  181 1   
   182  184  185 1   
   183  184  186 1   
   184  187  188 1   
   185  187  189 1   
   186  190  191 1   
   187  190  192 1   
   188  193  194 1   
   189  193  195 1   
@<TRIPOS>SUBSTRUCTURE
     1 MOL         1 TEMP              0 ****  ****    0 ROOT
