@<TRIPOS>MOLECULE
MOL
  189   185     1     0     0
SMALL
resp


@<TRIPOS>ATOM
      1 C1         11.1800    6.9400   -2.0060 c3        1 MOL     -0.192965
      2 C2         10.9460    5.7470   -1.0640 c         1 MOL      0.679283
      3 O1         11.9500    5.0560   -0.8400 o         1 MOL     -0.579068
      4 H1         10.3270    7.6160   -1.9540 hc        1 MOL      0.053088
      5 H2         12.0830    7.4700   -1.7040 hc        1 MOL      0.053088
      6 H3         11.2950    6.5790   -3.0290 hc        1 MOL      0.053088
      7 N1          9.7780    5.4200   -0.5070 n         1 MOL     -0.386517
      8 C3          9.5040    4.2690    0.3210 c3        1 MOL     -0.201506
      9 C4          8.3200    3.3630   -0.0170 c         1 MOL      0.868277
     10 O2          7.2870    3.7970   -0.5870 o         1 MOL     -0.762302
     11 C5          9.4490    4.7640    1.7670 c3        1 MOL      0.004777
     12 C6          8.4730    5.9780    1.8900 c         1 MOL      0.591889
     13 O3          8.6820    6.8580    2.7480 o         1 MOL     -0.669376
     14 O4          7.4750    6.0740    1.1690 o         1 MOL     -0.669376
     15 H4          9.0140    5.8210   -1.0170 hn        1 MOL      0.170357
     16 H5         10.3690    3.6080    0.2570 h1        1 MOL      0.075452
     17 H6         10.4300    5.0070    2.1740 hc        1 MOL      0.047327
     18 H7          9.0320    3.9250    2.3240 hc        1 MOL      0.047327
     19 N2          8.5670    2.0880    0.1520 n         1 MOL     -0.605605
     20 C7          7.6600    1.0130   -0.3380 c3        1 MOL      0.006893
     21 C8          6.4580    0.8830    0.5570 c         1 MOL      0.715929
     22 O5          6.5500    0.8690    1.7660 o         1 MOL     -0.561841
     23 C9          8.5470   -0.2750   -0.4880 c3        1 MOL     -0.366952
     24 C10         7.6570   -1.3810   -1.0990 c3        1 MOL      0.410324
     25 C11         8.5080   -2.6380   -1.4240 c3        1 MOL     -0.116816
     26 C12         7.7170   -3.8490   -1.9490 c3        1 MOL     -0.046824
     27 N3          6.7810   -3.4970   -2.9960 n4        1 MOL     -0.385169
     28 H8          9.4660    1.8140    0.5180 hn        1 MOL      0.342287
     29 H9          7.2570    1.2640   -1.3170 h1        1 MOL      0.123452
     30 H10         8.9180   -0.6080    0.4800 hc        1 MOL      0.134686
     31 H11         9.3690   -0.0640   -1.1640 hc        1 MOL      0.134686
     32 H12         7.3660   -0.9830   -2.0730 hc        1 MOL     -0.070979
     33 H13         6.8130   -1.6030   -0.4520 hc        1 MOL     -0.070979
     34 H14         9.0400   -2.9630   -0.5340 hc        1 MOL      0.039704
     35 H15         9.2500   -2.3130   -2.1480 hc        1 MOL      0.039704
     36 H16         7.1800   -4.3860   -1.1690 hx        1 MOL      0.130454
     37 H17         8.5190   -4.4990   -2.3050 hx        1 MOL      0.130454
     38 H18         5.9560   -3.1600   -2.5400 hn        1 MOL      0.335214
     39 H19         7.1810   -2.7750   -3.5810 hn        1 MOL      0.335214
     40 H20         6.6130   -4.3060   -3.5810 hn        1 MOL      0.335214
     41 N4          5.2900    0.7730    0.0510 n         1 MOL     -0.800423
     42 C13         3.9940    0.5240    0.7470 c3        1 MOL      0.678306
     43 C14         2.9660   -0.2450   -0.1130 c         1 MOL      0.325170
     44 O6          2.9250   -0.0360   -1.3310 o         1 MOL     -0.435294
     45 C15         3.4030    1.8760    1.2190 c3        1 MOL     -0.097819
     46 C16         3.1940    2.8670    0.0760 c         1 MOL      0.487390
     47 O7          2.0760    3.2040   -0.3720 o         1 MOL     -0.621178
     48 O8          4.1920    3.4740   -0.3740 o         1 MOL     -0.621178
     49 H21         5.1810    0.7680   -0.9590 hn        1 MOL      0.223847
     50 H22         4.4000   -0.0540    1.5730 h1        1 MOL     -0.090639
     51 H23         4.0230    2.2990    2.0110 hc        1 MOL      0.034534
     52 H24         2.5130    1.6110    1.7800 hc        1 MOL      0.034534
     53 N5          2.1280   -1.1260    0.4430 n         1 MOL     -0.524094
     54 C17         2.2900   -1.6930    1.7970 c3        1 MOL      0.052553
     55 C18         3.1320   -2.9060    1.8170 c         1 MOL      0.572834
     56 O9          3.2130   -3.5850    0.8180 o         1 MOL     -0.568957
     57 H25         1.5090   -1.6360   -0.1660 hn        1 MOL      0.390957
     58 H26         1.2970   -1.9840    2.1390 h1        1 MOL      0.024607
     59 H27         2.6950   -0.9240    2.4570 h1        1 MOL      0.024607
     60 N6          3.7360   -3.2760    2.9190 n         1 MOL     -0.284903
     61 C19         4.4660   -4.5910    3.0450 c3        1 MOL     -0.329432
     62 C20         3.7330   -5.8410    2.7150 c         1 MOL      0.509994
     63 O10         4.3480   -6.8920    2.7320 o         1 MOL     -0.510201
     64 C21         5.0000   -4.7080    4.5350 c3        1 MOL     -0.038692
     65 C22         3.9680   -4.8420    5.6140 c         1 MOL      0.762215
     66 O11         2.7070   -4.8580    5.3190 o         1 MOL     -0.703648
     67 O12         4.4130   -4.9200    6.7610 o         1 MOL     -0.703648
     68 H28         3.3940   -2.8730    3.7750 hn        1 MOL      0.209596
     69 H29         5.2790   -4.5000    2.3210 h1        1 MOL      0.144967
     70 H30         5.5580   -3.7850    4.7130 hc        1 MOL      0.033227
     71 H31         5.7140   -5.5130    4.6940 hc        1 MOL      0.033227
     72 N7          2.4000   -5.7640    2.3680 n         1 MOL     -0.230541
     73 C23         1.5520   -6.8880    1.9260 c3        1 MOL     -0.011327
     74 C24         0.8170   -6.6460    0.6250 c         1 MOL      0.531804
     75 O13        -0.1740   -7.3420    0.3820 o         1 MOL     -0.565259
     76 H32         1.8840   -4.9320    2.6320 hn        1 MOL      0.202550
     77 H33         0.8370   -7.0760    2.7140 h1        1 MOL      0.065985
     78 H34         2.1030   -7.8220    1.8570 h1        1 MOL      0.065985
     79 N8          0.9930   -5.5400   -0.1060 n         1 MOL     -0.231220
     80 C25         0.3390   -5.2810   -1.4290 c3        1 MOL     -0.288095
     81 C26         0.4450   -3.8420   -1.8150 c         1 MOL      0.620813
     82 O14         1.3470   -3.1090   -1.4400 o         1 MOL     -0.530022
     83 C27         0.8900   -6.0680   -2.6340 c3        1 MOL      0.472801
     84 C28         2.4460   -5.8830   -2.8340 c3        1 MOL     -0.386257
     85 O15         0.7080   -7.4240   -2.4140 oh        1 MOL     -0.564816
     86 H35         1.6440   -4.8570    0.2610 hn        1 MOL      0.171324
     87 H36        -0.7120   -5.5420   -1.2860 h1        1 MOL      0.141468
     88 H37         0.3260   -5.8240   -3.5350 h1        1 MOL     -0.038164
     89 H38         0.2630   -7.7680   -3.1900 ho        1 MOL      0.369434
     90 H39         2.7340   -6.4860   -3.6960 hc        1 MOL      0.085650
     91 H40         2.7120   -4.8890   -3.2010 hc        1 MOL      0.085650
     92 H41         3.0100   -6.1180   -1.9300 hc        1 MOL      0.085650
     93 N9         -0.4760   -3.3850   -2.6860 n         1 MOL     -0.502763
     94 C29        -0.5450   -1.9480   -3.1530 c3        1 MOL      0.161326
     95 C30        -1.6190   -1.2420   -2.3630 c         1 MOL      0.418711
     96 O16        -1.5980   -0.0010   -2.2350 o         1 MOL     -0.482576
     97 C31        -0.6900   -1.9460   -4.6800 c3        1 MOL      0.199534
     98 C32         0.5650   -2.2790   -5.5010 c3        1 MOL     -0.196196
     99 C33        -1.2550   -0.5800   -5.2110 c3        1 MOL     -0.389005
    100 C34         1.7350   -1.2320   -5.2020 c3        1 MOL     -0.101123
    101 H42        -1.2380   -4.0050   -2.9340 hn        1 MOL      0.264001
    102 H43         0.3250   -1.3180   -2.9620 h1        1 MOL      0.063588
    103 H44        -1.4840   -2.6320   -4.9810 hc        1 MOL     -0.018541
    104 H45         0.3080   -2.2340   -6.5600 hc        1 MOL      0.047093
    105 H46         0.8400   -3.2850   -5.1960 hc        1 MOL      0.047093
    106 H47        -2.1520   -0.2690   -4.6830 hc        1 MOL      0.112891
    107 H48        -0.5320    0.2290   -5.0450 hc        1 MOL      0.112891
    108 H49        -1.5250   -0.6550   -6.2610 hc        1 MOL      0.112891
    109 H50         2.6460   -1.3980   -5.7760 hc        1 MOL      0.033685
    110 H51         1.3350   -0.2540   -5.4880 hc        1 MOL      0.033685
    111 H52         2.0190   -1.2100   -4.1520 hc        1 MOL      0.033685
    112 N10        -2.5190   -2.0130   -1.7290 n         1 MOL     -0.488951
    113 C35        -3.5230   -1.6790   -0.6790 c3        1 MOL      0.125670
    114 C36        -4.8850   -2.2610   -0.9950 c         1 MOL      0.606482
    115 O17        -4.9870   -3.3550   -1.5870 o         1 MOL     -0.554337
    116 C37        -2.9410   -2.1500    0.6720 c3        1 MOL      0.383304
    117 C38        -3.7660   -1.9820    1.9710 c3        1 MOL     -0.410440
    118 O18        -2.4530   -3.4790    0.5460 oh        1 MOL     -0.624886
    119 H53        -2.5130   -3.0000   -1.9400 hn        1 MOL      0.268076
    120 H54        -3.6010   -0.5940   -0.5890 h1        1 MOL      0.027902
    121 H55        -2.0540   -1.5590    0.8820 h1        1 MOL     -0.002829
    122 H56        -1.8840   -3.5360    1.3140 ho        1 MOL      0.398833
    123 H57        -3.3100   -2.5100    2.8060 hc        1 MOL      0.106861
    124 H58        -3.8520   -0.9070    2.1480 hc        1 MOL      0.106861
    125 H59        -4.7870   -2.3300    1.8260 hc        1 MOL      0.106861
    126 N11        -5.9960   -1.7060   -0.6120 n         1 MOL     -0.494250
    127 C39        -7.3040   -2.1950   -1.1270 c3        1 MOL     -0.079173
    128 C40        -8.3650   -1.0980   -1.0320 c         1 MOL      0.601408
    129 O19        -9.1400   -1.0230   -2.0220 o         1 MOL     -0.563318
    130 C41        -7.7270   -3.4530   -0.3560 c3        1 MOL      0.321284
    131 C42        -9.1330   -3.9150   -0.7710 c3        1 MOL     -0.494468
    132 O20        -7.8860   -3.4010    1.0520 oh        1 MOL     -0.637008
    133 H60        -5.9980   -0.8720   -0.0370 hn        1 MOL      0.264134
    134 H61        -7.2750   -2.4470   -2.1890 h1        1 MOL      0.128188
    135 H62        -6.9460   -4.1940   -0.5780 h1        1 MOL      0.073007
    136 H63        -7.1470   -3.5790    1.6530 ho        1 MOL      0.403384
    137 H64        -9.2330   -4.1810   -1.8240 hc        1 MOL      0.138309
    138 H65        -9.2640   -4.8930   -0.3030 hc        1 MOL      0.138309
    139 H66        -9.8820   -3.1800   -0.4750 hc        1 MOL      0.138309
    140 N12        -8.3980   -0.2840    0.0070 n         1 MOL     -0.416980
    141 C43        -9.4010    0.7710    0.1290 c3        1 MOL     -0.031713
    142 C44        -8.8820    1.8690    0.9090 c         1 MOL      0.504812
    143 O21        -8.2190    1.6950    1.9350 o         1 MOL     -0.484605
    144 C45       -10.6810    0.1480    0.7690 c3        1 MOL     -0.313923
    145 C46       -11.9260    0.9880    0.5180 c3        1 MOL      0.254749
    146 C47       -13.1920    0.5670    1.3940 c3        1 MOL     -0.249230
    147 C48       -14.2670    1.5890    1.1090 c3        1 MOL      0.150594
    148 N13       -15.4520    1.3730    2.0070 n4        1 MOL     -0.139853
    149 H67        -7.7040   -0.4180    0.7190 hn        1 MOL      0.268155
    150 H68        -9.6430    1.0580   -0.8940 h1        1 MOL      0.095560
    151 H69       -10.5670    0.1160    1.8520 hc        1 MOL      0.128160
    152 H70       -10.7870   -0.8700    0.3800 hc        1 MOL      0.128160
    153 H71       -12.2140    0.9990   -0.5340 hc        1 MOL     -0.015069
    154 H72       -11.5970    1.9870    0.7820 hc        1 MOL     -0.015069
    155 H73       -12.9530    0.6080    2.4510 hc        1 MOL      0.071221
    156 H74       -13.4590   -0.4400    1.0660 hc        1 MOL      0.071221
    157 H75       -14.5910    1.5540    0.0690 hx        1 MOL      0.039649
    158 H76       -13.7950    2.5590    1.2480 hx        1 MOL      0.039649
    159 H77       -15.8620    0.5130    1.6560 hn        1 MOL      0.219022
    160 H78       -15.0710    1.0040    2.8720 hn        1 MOL      0.219022
    161 H79       -16.0850    2.1460    2.1410 hn        1 MOL      0.219022
    162 N14        -9.1120    3.0840    0.4660 n         1 MOL     -0.258104
    163 C49        -8.5580    4.2690    1.0340 c3        1 MOL     -0.015506
    164 C50        -6.9840    4.1690    1.1210 c         1 MOL      0.330493
    165 O22        -6.5040    4.0660    2.2780 o         1 MOL     -0.500952
    166 C51        -8.9900    5.5550    0.2840 c3        1 MOL      0.050605
    167 C52        -8.4530    6.8250    0.9690 c3        1 MOL     -0.264517
    168 C53        -8.8980    8.1340    0.1840 c         1 MOL      0.712116
    169 O23        -9.7050    8.0770   -0.7640 o         1 MOL     -0.653134
    170 O24        -8.5590    9.2280    0.6530 o         1 MOL     -0.653134
    171 H80        -9.6640    3.1150   -0.3750 hn        1 MOL      0.194156
    172 H81        -8.9460    4.3720    2.0430 h1        1 MOL      0.078283
    173 H82       -10.0630    5.6170    0.0930 hc        1 MOL      0.000175
    174 H83        -8.5800    5.5610   -0.7330 hc        1 MOL      0.000175
    175 H84        -7.3660    6.7860    1.0680 hc        1 MOL      0.079367
    176 H85        -8.9170    6.8640    1.9490 hc        1 MOL      0.079367
    177 N15        -6.1810    3.9800    0.0530 n         1 MOL     -0.270566
    178 C54        -6.4910    4.1850   -1.3570 c3        1 MOL     -0.097035
    179 H86        -7.3110    4.8990   -1.4490 h1        1 MOL      0.069005
    180 H87        -5.6120    4.5760   -1.8700 h1        1 MOL      0.069005
    181 H88        -6.7840    3.2370   -1.8070 h1        1 MOL      0.069005
    182 H89        -5.2020    3.9190    0.3010 hn        1 MOL      0.273285
    183 Ca1         5.5400    5.6230   -0.4020 Ca        1 MOL      1.634062
    184 O25         5.0980    4.7120    2.2550 oh        1 MOL     -0.829271
    185 H90         5.2170    5.4530    2.8480 ho        1 MOL      0.403420
    186 H91         5.7270    4.0580    2.5540 ho        1 MOL      0.403420
    187 O26         3.0580    5.3040   -2.3110 oh        1 MOL     -0.829271
    188 H92         2.8510    4.4040   -2.0580 ho        1 MOL      0.403420
    189 H93         3.0560    5.7900   -1.4830 ho        1 MOL      0.403420
@<TRIPOS>BOND
     1    1    2 1   
     2    1    4 1   
     3    1    5 1   
     4    1    6 1   
     5    2    3 2   
     6    2    7 1   
     7    7    8 1   
     8    7   15 1   
     9    8    9 1   
    10    8   11 1   
    11    8   16 1   
    12    9   10 2   
    13    9   19 1   
    14   11   12 1   
    15   11   17 1   
    16   11   18 1   
    17   12   13 1   
    18   12   14 1   
    19   19   20 1   
    20   19   28 1   
    21   20   21 1   
    22   20   23 1   
    23   20   29 1   
    24   21   22 2   
    25   21   41 1   
    26   23   24 1   
    27   23   30 1   
    28   23   31 1   
    29   24   25 1   
    30   24   32 1   
    31   24   33 1   
    32   25   26 1   
    33   25   34 1   
    34   25   35 1   
    35   26   27 1   
    36   26   36 1   
    37   26   37 1   
    38   27   38 1   
    39   27   39 1   
    40   27   40 1   
    41   41   42 1   
    42   41   49 1   
    43   42   43 1   
    44   42   45 1   
    45   42   50 1   
    46   43   44 2   
    47   43   53 1   
    48   45   46 1   
    49   45   51 1   
    50   45   52 1   
    51   46   47 1   
    52   46   48 1   
    53   53   54 1   
    54   53   57 1   
    55   54   55 1   
    56   54   58 1   
    57   54   59 1   
    58   55   56 2   
    59   55   60 1   
    60   60   61 1   
    61   60   68 1   
    62   61   62 1   
    63   61   64 1   
    64   61   69 1   
    65   62   63 2   
    66   62   72 1   
    67   64   65 1   
    68   64   70 1   
    69   64   71 1   
    70   65   66 1   
    71   65   67 1   
    72   72   73 1   
    73   72   76 1   
    74   73   74 1   
    75   73   77 1   
    76   73   78 1   
    77   74   75 2   
    78   74   79 1   
    79   79   80 1   
    80   79   86 1   
    81   80   81 1   
    82   80   83 1   
    83   80   87 1   
    84   81   82 2   
    85   81   93 1   
    86   83   84 1   
    87   83   85 1   
    88   83   88 1   
    89   84   90 1   
    90   84   91 1   
    91   84   92 1   
    92   85   89 1   
    93   93   94 1   
    94   93  101 1   
    95   94   95 1   
    96   94   97 1   
    97   94  102 1   
    98   95   96 2   
    99   95  112 1   
   100   97   98 1   
   101   97   99 1   
   102   97  103 1   
   103   98  100 1   
   104   98  104 1   
   105   98  105 1   
   106   99  106 1   
   107   99  107 1   
   108   99  108 1   
   109  100  109 1   
   110  100  110 1   
   111  100  111 1   
   112  112  113 1   
   113  112  119 1   
   114  113  114 1   
   115  113  116 1   
   116  113  120 1   
   117  114  115 2   
   118  114  126 1   
   119  116  117 1   
   120  116  118 1   
   121  116  121 1   
   122  117  123 1   
   123  117  124 1   
   124  117  125 1   
   125  118  122 1   
   126  126  127 1   
   127  126  133 1   
   128  127  128 1   
   129  127  130 1   
   130  127  134 1   
   131  128  129 2   
   132  128  140 1   
   133  130  131 1   
   134  130  132 1   
   135  130  135 1   
   136  131  137 1   
   137  131  138 1   
   138  131  139 1   
   139  132  136 1   
   140  140  141 1   
   141  140  149 1   
   142  141  142 1   
   143  141  144 1   
   144  141  150 1   
   145  142  143 2   
   146  142  162 1   
   147  144  145 1   
   148  144  151 1   
   149  144  152 1   
   150  145  146 1   
   151  145  153 1   
   152  145  154 1   
   153  146  147 1   
   154  146  155 1   
   155  146  156 1   
   156  147  148 1   
   157  147  157 1   
   158  147  158 1   
   159  148  159 1   
   160  148  160 1   
   161  148  161 1   
   162  162  163 1   
   163  162  171 1   
   164  163  164 1   
   165  163  166 1   
   166  163  172 1   
   167  164  165 2   
   168  164  177 1   
   169  166  167 1   
   170  166  173 1   
   171  166  174 1   
   172  167  168 1   
   173  167  175 1   
   174  167  176 1   
   175  168  169 1   
   176  168  170 1   
   177  177  178 1   
   178  177  182 1   
   179  178  179 1   
   180  178  180 1   
   181  178  181 1   
   182  184  185 1   
   183  184  186 1   
   184  187  188 1   
   185  187  189 1   
@<TRIPOS>SUBSTRUCTURE
     1 MOL         1 TEMP              0 ****  ****    0 ROOT
