@<TRIPOS>MOLECULE
MOL
  192   187     1     0     0
SMALL
resp


@<TRIPOS>ATOM
      1 C1          6.1810   -5.0930   -2.7200 c3        1 MOL      0.066511
      2 C2          4.9830   -4.2520   -2.2060 c         1 MOL      0.400144
      3 O1          4.6210   -3.2610   -2.8680 o         1 MOL     -0.439126
      4 H1          6.9540   -5.1300   -1.9520 hc        1 MOL     -0.041104
      5 H2          5.8450   -6.1050   -2.9460 hc        1 MOL     -0.041104
      6 H3          6.5870   -4.6340   -3.6210 hc        1 MOL     -0.041104
      7 N1          4.5710   -4.5030   -0.9650 n         1 MOL     -0.315529
      8 C3          3.7040   -3.5690   -0.2430 c3        1 MOL     -0.030801
      9 C4          2.2560   -3.5080   -0.8380 c         1 MOL      0.544356
     10 O2          1.5620   -2.4660   -0.8240 o         1 MOL     -0.518649
     11 C5          4.4010   -2.2480    0.1000 c3        1 MOL     -0.347310
     12 C6          5.8920   -2.3380    0.4210 c         1 MOL      0.217310
     13 O3          6.6790   -1.8050   -0.4240 o         1 MOL     -0.493231
     14 O4          6.3660   -2.8230    1.4940 o         1 MOL     -0.493231
     15 H4          4.9460   -5.2950   -0.4850 hn        1 MOL      0.291414
     16 H5          3.6470   -4.1240    0.6940 h1        1 MOL      0.077492
     17 H6          3.9840   -1.8560    1.0240 hc        1 MOL      0.184964
     18 H7          4.1180   -1.5290   -0.6750 hc        1 MOL      0.184964
     19 N2          1.7550   -4.6980   -1.2830 n         1 MOL     -0.436515
     20 C7          0.4180   -4.8070   -1.8630 c3        1 MOL     -0.003671
     21 C8         -0.2840   -5.9220   -1.0550 c         1 MOL      0.567058
     22 O5          0.2770   -6.9900   -0.9770 o         1 MOL     -0.600689
     23 C9          0.4880   -5.2720   -3.3530 c3        1 MOL      0.201328
     24 C10         1.4650   -4.4750   -4.2450 c3        1 MOL     -0.050173
     25 C11        -0.8610   -5.3490   -4.0200 c3        1 MOL     -0.161553
     26 C12         1.1340   -3.0240   -4.4450 c3        1 MOL     -0.164960
     27 H8          2.2220   -5.5420   -0.9780 hn        1 MOL      0.221225
     28 H9         -0.0940   -3.8690   -1.6690 h1        1 MOL      0.168456
     29 H10         0.9140   -6.2660   -3.4760 hc        1 MOL     -0.028202
     30 H11         1.4190   -4.9910   -5.2120 hc        1 MOL      0.005425
     31 H12         2.4610   -4.5310   -3.8200 hc        1 MOL      0.005425
     32 H13        -1.4310   -6.1640   -3.5690 hc        1 MOL      0.021741
     33 H14        -1.4600   -4.4330   -3.9380 hc        1 MOL      0.021741
     34 H15        -0.7580   -5.6610   -5.0620 hc        1 MOL      0.021741
     35 H16         0.8490   -2.6460   -3.4550 hc        1 MOL      0.057505
     36 H17         2.0610   -2.5430   -4.7580 hc        1 MOL      0.057505
     37 H18         0.3800   -2.9020   -5.2290 hc        1 MOL      0.057505
     38 N3         -1.4690   -5.8230   -0.4730 n         1 MOL     -0.297001
     39 C13        -2.1830   -4.6360    0.0250 c3        1 MOL     -0.189651
     40 C14        -3.1240   -5.0830    1.1790 c         1 MOL      0.522025
     41 O6         -3.6610   -6.2180    1.1700 o         1 MOL     -0.541801
     42 C15        -2.9810   -3.9410   -1.0690 c3        1 MOL     -0.098504
     43 C16        -3.7050   -2.6900   -0.6840 c         1 MOL      0.654357
     44 O7         -4.7290   -2.7060   -0.0490 o         1 MOL     -0.593172
     45 O8         -3.1400   -1.6420   -0.9250 o         1 MOL     -0.593172
     46 H19        -1.8370   -6.6950   -0.1350 hn        1 MOL      0.236216
     47 H20        -1.5370   -3.8520    0.4170 h1        1 MOL      0.062387
     48 H21        -3.6450   -4.6580   -1.5530 hc        1 MOL      0.019030
     49 H22        -2.2150   -3.6350   -1.7820 hc        1 MOL      0.019030
     50 N4         -3.3690   -4.2910    2.1450 n         1 MOL     -0.361269
     51 C17        -4.0870   -4.6700    3.3590 c3        1 MOL     -0.161372
     52 C18        -5.4830   -4.0540    3.5220 c         1 MOL      0.653976
     53 O9         -6.1230   -4.3270    4.5520 o         1 MOL     -0.629746
     54 H23        -2.9700   -3.3800    2.0140 hn        1 MOL      0.346718
     55 H24        -3.4790   -4.1760    4.1080 h1        1 MOL      0.101427
     56 H25        -4.2610   -5.7380    3.5410 h1        1 MOL      0.101427
     57 N5         -5.9260   -3.1310    2.6930 n         1 MOL     -0.447048
     58 C19        -7.0810   -2.2260    3.0650 c3        1 MOL      0.123179
     59 C20        -7.9980   -1.8910    1.8690 c         1 MOL      0.339121
     60 O10        -9.1690   -1.6470    2.0070 o         1 MOL     -0.547423
     61 C21        -6.6390   -0.9660    3.8670 c3        1 MOL     -0.298736
     62 C22        -5.4910   -0.2320    3.1580 c         1 MOL      0.752608
     63 O11        -5.6480    0.0750    1.9360 o         1 MOL     -0.693050
     64 O12        -4.4630    0.0260    3.8170 o         1 MOL     -0.693050
     65 H26        -5.4500   -3.0060    1.8090 hn        1 MOL      0.256788
     66 H27        -7.6830   -2.9000    3.6760 h1        1 MOL      0.064883
     67 H28        -6.3400   -1.3800    4.8330 hc        1 MOL      0.068544
     68 H29        -7.4720   -0.3060    4.1200 hc        1 MOL      0.068544
     69 N6         -7.3980   -1.9460    0.6690 n         1 MOL     -0.079973
     70 C23        -8.0130   -1.4620   -0.6030 c3        1 MOL     -0.187122
     71 C24        -8.3930    0.0080   -0.7320 c         1 MOL      0.605243
     72 O13        -9.1120    0.2960   -1.6750 o         1 MOL     -0.596773
     73 H30        -6.4420   -2.2350    0.5950 hn        1 MOL      0.087698
     74 H31        -8.9190   -2.0480   -0.8050 h1        1 MOL      0.073747
     75 H32        -7.2350   -1.7170   -1.3110 h1        1 MOL      0.073747
     76 N7         -7.9020    0.8090    0.2200 n         1 MOL     -0.209810
     77 C25        -8.0440    2.2690    0.3890 c3        1 MOL     -0.308140
     78 C26        -7.4710    2.9440   -0.8930 c         1 MOL      0.642899
     79 O14        -7.7970    4.0840   -1.0170 o         1 MOL     -0.540715
     80 C27        -9.4020    2.7300    0.8090 c3        1 MOL      0.337149
     81 C28        -9.9000    2.1860    2.1610 c3        1 MOL     -0.272474
     82 C29        -9.4160    3.0680    3.4050 c         1 MOL      0.606495
     83 N8         -9.5560    2.5880    4.6410 n         1 MOL     -0.725365
     84 O15        -8.9200    4.1420    3.2890 o         1 MOL     -0.522984
     85 H33        -7.1770    0.3670    0.7630 hn        1 MOL      0.230913
     86 H34        -7.3010    2.4740    1.1650 h1        1 MOL      0.164839
     87 H35       -10.1010    2.4650    0.0070 hc        1 MOL     -0.045042
     88 H36        -9.5450    3.8040    0.8330 hc        1 MOL     -0.045042
     89 H37        -9.5670    1.1590    2.2810 hc        1 MOL      0.059348
     90 H38       -10.9880    2.1200    2.1070 hc        1 MOL      0.059348
     91 H39        -9.9660    1.7040    4.8840 hn        1 MOL      0.321153
     92 H40        -9.4520    3.2910    5.3610 hn        1 MOL      0.321153
     93 N9         -6.6440    2.3160   -1.7450 n         1 MOL     -0.556423
     94 C30        -6.1750    2.8480   -3.0330 c3        1 MOL     -0.056741
     95 C31        -4.6420    2.8900   -3.2990 c         1 MOL      0.633077
     96 O16        -4.2510    3.4900   -4.2660 o         1 MOL     -0.591939
     97 C32        -6.8650    2.0810   -4.1580 c3        1 MOL      0.515443
     98 C33        -6.8390    0.5890   -4.0830 c3        1 MOL     -0.501069
     99 C34        -8.3230    2.4820   -4.4090 c3        1 MOL     -0.501069
    100 H41        -6.3880    1.3770   -1.4860 hn        1 MOL      0.325513
    101 H42        -6.5400    3.8680   -3.0520 h1        1 MOL      0.084329
    102 H43        -6.3460    2.4090   -5.0590 hc        1 MOL     -0.099492
    103 H44        -5.8210    0.2300   -3.9700 hc        1 MOL      0.108750
    104 H45        -7.4430    0.2510   -3.2460 hc        1 MOL      0.108750
    105 H46        -7.4000    0.2240   -4.9400 hc        1 MOL      0.108750
    106 H47        -8.2190    3.5690   -4.3920 hc        1 MOL      0.108750
    107 H48        -8.6590    2.1540   -5.3880 hc        1 MOL      0.108750
    108 H49        -8.9630    2.1150   -3.6080 hc        1 MOL      0.108750
    109 N10        -3.8320    2.2300   -2.4650 n         1 MOL     -0.522297
    110 C35        -2.3450    2.0510   -2.5600 c3        1 MOL      0.178614
    111 C36        -1.7030    2.2980   -1.1750 c         1 MOL      0.663053
    112 O17        -2.3540    2.3950   -0.1470 o         1 MOL     -0.528831
    113 C37        -2.1160    0.6490   -3.1350 c3        1 MOL     -0.020714
    114 C38        -0.7890   -0.0100   -2.8260 c         1 MOL      0.427485
    115 N11        -0.7650   -0.7620   -1.7960 n         1 MOL     -0.648627
    116 O18         0.2360    0.2600   -3.4160 o         1 MOL     -0.597433
    117 H50        -4.3340    1.5430   -1.9160 hn        1 MOL      0.249188
    118 H51        -1.9230    2.7370   -3.2890 h1        1 MOL      0.064455
    119 H52        -2.2510    0.7180   -4.2210 hc        1 MOL      0.008880
    120 H53        -2.9230   -0.0260   -2.8520 hc        1 MOL      0.008880
    121 H54        -1.6610   -1.0700   -1.4420 hn        1 MOL      0.347563
    122 H55         0.1020   -1.2650   -1.6440 hn        1 MOL      0.347563
    123 N12        -0.3320    2.4540   -1.1600 n         1 MOL     -0.842443
    124 C39         0.4800    2.8700    0.0100 c3        1 MOL      0.362103
    125 C40         1.7990    3.3550   -0.3810 c         1 MOL      0.781419
    126 O19         2.3570    2.9830   -1.3870 o         1 MOL     -0.616839
    127 C41         0.7600    1.5900    0.8370 c3        1 MOL     -0.217398
    128 C42         1.6340    1.8380    2.0070 ca        1 MOL      0.045587
    129 C43         1.3110    2.7520    3.0560 ca        1 MOL     -0.151526
    130 C44         2.8590    1.1670    2.0090 ca        1 MOL     -0.151526
    131 C45         2.3460    3.2720    3.8670 ca        1 MOL     -0.223215
    132 C46         3.8160    1.5240    2.9810 ca        1 MOL     -0.223215
    133 C47         3.6330    2.6060    3.9100 ca        1 MOL      0.245457
    134 O20         4.6840    2.8640    4.7620 oh        1 MOL     -0.481748
    135 H56         0.1620    2.0510   -1.9510 hn        1 MOL      0.368553
    136 H57        -0.0510    3.6630    0.5340 h1        1 MOL      0.041139
    137 H58         1.2270    0.8870    0.1500 hc        1 MOL      0.106184
    138 H59        -0.1440    1.0900    1.1910 hc        1 MOL      0.106184
    139 H60         0.3490    3.2150    3.1230 ha        1 MOL      0.129633
    140 H61         3.0410    0.3930    1.2880 ha        1 MOL      0.129633
    141 H62         2.2690    4.0820    4.5710 ha        1 MOL      0.124278
    142 H63         4.7240    0.9480    3.0600 ha        1 MOL      0.124278
    143 H64         4.4550    3.6980    5.1870 ho        1 MOL      0.379585
    144 N13         2.3150    4.2460    0.4270 n         1 MOL     -0.995587
    145 C48         3.6340    4.9130    0.1670 c3        1 MOL      0.625663
    146 C49         4.6720    4.6290    1.2860 c         1 MOL      0.474518
    147 O21         4.7670    5.3020    2.2890 o         1 MOL     -0.551542
    148 C50         3.4900    6.4020   -0.1060 c3        1 MOL      0.010282
    149 C51         4.6780    7.0960   -0.6100 c3        1 MOL     -0.183771
    150 C52         4.2720    8.5170   -1.0890 c         1 MOL      0.683827
    151 O22         4.4930    9.5650   -0.3810 o         1 MOL     -0.647406
    152 O23         3.7540    8.6500   -2.2040 o         1 MOL     -0.647406
    153 H65         1.8060    4.3690    1.3000 hn        1 MOL      0.354800
    154 H66         4.0180    4.4830   -0.7580 h1        1 MOL      0.017909
    155 H67         3.1620    6.8300    0.8490 hc        1 MOL     -0.016153
    156 H68         2.7690    6.4250   -0.9170 hc        1 MOL     -0.016153
    157 H69         5.1340    6.5620   -1.4530 hc        1 MOL      0.020944
    158 H70         5.4630    7.2120    0.1360 hc        1 MOL      0.020944
    159 N14         5.4720    3.6020    1.1340 n         1 MOL     -0.525548
    160 C53         5.5110    2.5670    0.0510 c3        1 MOL     -0.064728
    161 C54         5.8660    3.0990   -1.3520 c         1 MOL      0.518382
    162 O24         6.3630    4.2370   -1.5480 o         1 MOL     -0.544314
    163 C55         6.4710    1.3980    0.4320 c3        1 MOL      0.223712
    164 C56         7.9690    1.7050    0.5440 c3        1 MOL     -0.605574
    165 C57         8.6760    0.8470    1.6390 c         1 MOL      0.805642
    166 O25         9.4490    0.0030    1.1710 o         1 MOL     -0.669359
    167 O26         8.5700    1.1010    2.8650 o         1 MOL     -0.669359
    168 H71         5.9760    3.3970    1.9820 hn        1 MOL      0.340279
    169 H72         4.5350    2.0960   -0.0880 h1        1 MOL      0.009983
    170 H73         6.5160    0.6200   -0.3300 hc        1 MOL      0.004268
    171 H74         6.1150    0.9430    1.3550 hc        1 MOL      0.004268
    172 H75         8.1000    2.7710    0.7590 hc        1 MOL      0.124348
    173 H76         8.3920    1.5170   -0.4460 hc        1 MOL      0.124348
    174 N15         5.6230    2.2700   -2.3470 n         1 MOL     -0.146854
    175 C58         5.8440    2.6070   -3.7590 c3        1 MOL     -0.346671
    176 H77         5.0560    3.2790   -4.0990 h1        1 MOL      0.130010
    177 H78         6.8110    3.0970   -3.8690 h1        1 MOL      0.130010
    178 H79         5.8270    1.6960   -4.3580 h1        1 MOL      0.130010
    179 H80         5.5760    1.2960   -2.0930 hn        1 MOL      0.219441
    180 Ca1         8.9390   -2.5220    0.8990 Ca        1 MOL      1.621659
    181 O27         9.7660   -1.5910   -1.6080 oh        1 MOL     -0.941588
    182 O28         8.3520   -4.6640    2.5890 oh        1 MOL     -0.941588
    183 H81         9.1210   -1.4540   -2.3050 ho        1 MOL      0.427636
    184 H82         8.8830   -5.2440    3.1300 ho        1 MOL      0.427636
    185 H83        10.6080   -1.4890   -2.0450 ho        1 MOL      0.427636
    186 H84         7.6360   -4.3830    3.1560 ho        1 MOL      0.427636
    187 O29        10.9470   -2.6880    2.7890 oh        1 MOL     -0.941588
    188 H85        11.6670   -3.2960    2.6440 ho        1 MOL      0.427636
    189 H86        10.7610   -2.7490    3.7290 ho        1 MOL      0.427636
    190 O30         8.1000   -1.4340    3.4290 oh        1 MOL     -0.941588
    191 H87         7.1750   -1.2620    3.6280 ho        1 MOL      0.427636
    192 H88         8.4700   -0.5700    3.2230 ho        1 MOL      0.427636
@<TRIPOS>BOND
     1    1    2 1   
     2    1    4 1   
     3    1    5 1   
     4    1    6 1   
     5    2    3 2   
     6    2    7 1   
     7    7    8 1   
     8    7   15 1   
     9    8    9 1   
    10    8   11 1   
    11    8   16 1   
    12    9   10 2   
    13    9   19 1   
    14   11   12 1   
    15   11   17 1   
    16   11   18 1   
    17   12   13 1   
    18   12   14 1   
    19   19   20 1   
    20   19   27 1   
    21   20   21 1   
    22   20   23 1   
    23   20   28 1   
    24   21   22 2   
    25   21   38 1   
    26   23   24 1   
    27   23   25 1   
    28   23   29 1   
    29   24   26 1   
    30   24   30 1   
    31   24   31 1   
    32   25   32 1   
    33   25   33 1   
    34   25   34 1   
    35   26   35 1   
    36   26   36 1   
    37   26   37 1   
    38   38   39 1   
    39   38   46 1   
    40   39   40 1   
    41   39   42 1   
    42   39   47 1   
    43   40   41 2   
    44   40   50 1   
    45   42   43 1   
    46   42   48 1   
    47   42   49 1   
    48   43   44 1   
    49   43   45 1   
    50   50   51 1   
    51   50   54 1   
    52   51   52 1   
    53   51   55 1   
    54   51   56 1   
    55   52   53 2   
    56   52   57 1   
    57   57   58 1   
    58   57   65 1   
    59   58   59 1   
    60   58   61 1   
    61   58   66 1   
    62   59   60 2   
    63   59   69 1   
    64   61   62 1   
    65   61   67 1   
    66   61   68 1   
    67   62   63 1   
    68   62   64 1   
    69   69   70 1   
    70   69   73 1   
    71   70   71 1   
    72   70   74 1   
    73   70   75 1   
    74   71   72 2   
    75   71   76 1   
    76   76   77 1   
    77   76   85 1   
    78   77   78 1   
    79   77   80 1   
    80   77   86 1   
    81   78   79 2   
    82   78   93 1   
    83   80   81 1   
    84   80   87 1   
    85   80   88 1   
    86   81   82 1   
    87   81   89 1   
    88   81   90 1   
    89   82   83 1   
    90   82   84 2   
    91   83   91 1   
    92   83   92 1   
    93   93   94 1   
    94   93  100 1   
    95   94   95 1   
    96   94   97 1   
    97   94  101 1   
    98   95   96 2   
    99   95  109 1   
   100   97   98 1   
   101   97   99 1   
   102   97  102 1   
   103   98  103 1   
   104   98  104 1   
   105   98  105 1   
   106   99  106 1   
   107   99  107 1   
   108   99  108 1   
   109  109  110 1   
   110  109  117 1   
   111  110  111 1   
   112  110  113 1   
   113  110  118 1   
   114  111  112 2   
   115  111  123 1   
   116  113  114 1   
   117  113  119 1   
   118  113  120 1   
   119  114  115 1   
   120  114  116 2   
   121  115  121 1   
   122  115  122 1   
   123  123  124 1   
   124  123  135 1   
   125  124  125 1   
   126  124  127 1   
   127  124  136 1   
   128  125  126 2   
   129  125  144 1   
   130  127  128 1   
   131  127  137 1   
   132  127  138 1   
   133  128  129 ar  
   134  128  130 ar  
   135  129  131 ar  
   136  129  139 1   
   137  130  132 ar  
   138  130  140 1   
   139  131  133 ar  
   140  131  141 1   
   141  132  133 ar  
   142  132  142 1   
   143  133  134 1   
   144  134  143 1   
   145  144  145 1   
   146  144  153 1   
   147  145  146 1   
   148  145  148 1   
   149  145  154 1   
   150  146  147 2   
   151  146  159 1   
   152  148  149 1   
   153  148  155 1   
   154  148  156 1   
   155  149  150 1   
   156  149  157 1   
   157  149  158 1   
   158  150  151 1   
   159  150  152 1   
   160  159  160 1   
   161  159  168 1   
   162  160  161 1   
   163  160  163 1   
   164  160  169 1   
   165  161  162 2   
   166  161  174 1   
   167  163  164 1   
   168  163  170 1   
   169  163  171 1   
   170  164  165 1   
   171  164  172 1   
   172  164  173 1   
   173  165  166 1   
   174  165  167 1   
   175  174  175 1   
   176  174  179 1   
   177  175  176 1   
   178  175  177 1   
   179  175  178 1   
   180  181  183 1   
   181  181  185 1   
   182  182  184 1   
   183  182  186 1   
   184  187  188 1   
   185  187  189 1   
   186  190  191 1   
   187  190  192 1   
@<TRIPOS>SUBSTRUCTURE
     1 MOL         1 TEMP              0 ****  ****    0 ROOT
