@<TRIPOS>MOLECULE
MOL
  192   187     1     0     0
SMALL
resp


@<TRIPOS>ATOM
      1 C1         -6.4190   -3.3410    4.9180 c3        1 MOL     -0.329658
      2 C2         -5.4910   -2.6890    3.8530 c         1 MOL      0.787976
      3 O1         -4.8700   -3.3920    3.1440 o         1 MOL     -0.598237
      4 H1         -6.0630   -4.3460    5.1430 hc        1 MOL      0.075388
      5 H2         -6.4060   -2.7410    5.8270 hc        1 MOL      0.075388
      6 H3         -7.4360   -3.3950    4.5300 hc        1 MOL      0.075388
      7 N1         -5.4970   -1.3960    3.8050 n         1 MOL     -0.640479
      8 C3         -5.2150   -0.5750    2.5800 c3        1 MOL      0.411779
      9 C4         -3.7820   -0.5210    2.1470 c         1 MOL      0.036163
     10 O2         -3.4170    0.1390    1.1750 o         1 MOL     -0.205995
     11 C5         -5.7580    0.8430    2.6830 c3        1 MOL     -0.323033
     12 C6         -7.2350    1.0010    3.0710 c         1 MOL      0.714666
     13 O3         -7.5790    0.6430    4.2480 o         1 MOL     -0.702812
     14 O4         -8.0330    1.5470    2.2670 o         1 MOL     -0.702812
     15 H4         -6.0040   -0.9760    4.5650 hn        1 MOL      0.278354
     16 H5         -5.8090   -1.1350    1.8720 h1        1 MOL      0.073797
     17 H6         -5.6400    1.4120    1.7630 hc        1 MOL      0.045608
     18 H7         -5.2060    1.4420    3.4090 hc        1 MOL      0.045608
     19 N2         -2.9150   -1.2330    2.8510 n         1 MOL     -0.063514
     20 C7         -1.4320   -1.2670    2.6100 c3        1 MOL      0.084162
     21 C8         -1.0030   -2.5580    1.8660 c         1 MOL      0.339226
     22 O5         -1.5370   -3.6110    2.2000 o         1 MOL     -0.492596
     23 C9         -0.7700   -1.1060    4.0020 c3        1 MOL     -0.000446
     24 C10        -1.0510    0.2680    4.6740 c3        1 MOL     -0.057627
     25 C11        -0.1000    0.6090    5.8120 c3        1 MOL     -0.107326
     26 C12        -0.1680    2.0970    6.3800 c3        1 MOL      0.047423
     27 N3          0.3350    2.1690    7.7530 n4        1 MOL     -0.436614
     28 H8         -3.3140   -1.8220    3.5700 hn        1 MOL      0.151295
     29 H9         -1.2650   -0.4480    1.9160 h1        1 MOL      0.055782
     30 H10         0.3170   -1.1780    3.9810 hc        1 MOL      0.036701
     31 H11        -1.0340   -1.9530    4.6550 hc        1 MOL      0.036701
     32 H12        -2.0990    0.2980    4.9900 hc        1 MOL      0.012777
     33 H13        -0.8970    1.0400    3.9170 hc        1 MOL      0.012777
     34 H14         0.8990    0.5740    5.3810 hc        1 MOL      0.064162
     35 H15        -0.0740   -0.1540    6.5880 hc        1 MOL      0.064162
     36 H16        -1.1550    2.5360    6.2260 hx        1 MOL      0.103542
     37 H17         0.4380    2.6940    5.7020 hx        1 MOL      0.103542
     38 H18         0.3830    3.1380    8.0290 hn        1 MOL      0.348456
     39 H19        -0.3900    1.7270    8.3140 hn        1 MOL      0.348456
     40 H20         1.1930    1.6250    7.7780 hn        1 MOL      0.348456
     41 N4         -0.1090   -2.5400    0.8920 n         1 MOL      0.095769
     42 C13         0.6560   -1.3890    0.3750 c3        1 MOL     -1.057425
     43 C14         1.2230   -0.2920    1.3840 c         1 MOL      0.533321
     44 O6          0.7730    0.8480    1.4450 o         1 MOL     -0.471210
     45 C15        -0.0370   -0.7760   -0.8590 c3        1 MOL     -0.019624
     46 C16         0.1960   -1.5060   -2.1020 c         1 MOL      0.464576
     47 O7          0.7510   -2.6680   -2.1030 o         1 MOL     -0.632017
     48 O8         -0.1940   -0.9900   -3.1670 o         1 MOL     -0.632017
     49 H21         0.0930   -3.4120    0.4350 hn        1 MOL      0.154225
     50 H22         1.5240   -1.8630   -0.0790 h1        1 MOL      0.210617
     51 H23         0.4660    0.1850   -0.8980 hc        1 MOL      0.129956
     52 H24        -1.0900   -0.6940   -0.5910 hc        1 MOL      0.129956
     53 N5          2.2440   -0.5090    2.2050 n         1 MOL     -0.339252
     54 C17         3.1130   -1.6530    1.9850 c3        1 MOL     -0.036109
     55 C18         4.1640   -1.9610    3.0870 c         1 MOL      0.590754
     56 O9          4.2020   -1.3540    4.1220 o         1 MOL     -0.561265
     57 H25         2.4650    0.1610    2.9290 hn        1 MOL      0.272604
     58 H26         3.6890   -1.4170    1.0890 h1        1 MOL      0.124342
     59 H27         2.4650   -2.5210    1.9730 h1        1 MOL      0.124342
     60 N6          4.9640   -2.9950    2.8550 n         1 MOL     -0.454992
     61 C19         5.1720   -3.6970    1.6710 c3        1 MOL     -0.009854
     62 C20         6.3010   -3.1530    0.7930 c         1 MOL      0.386054
     63 O10         7.3900   -2.8090    1.3720 o         1 MOL     -0.406640
     64 C21         5.6480   -5.1140    2.0330 c3        1 MOL     -0.106320
     65 C22         6.8170   -5.1110    3.0800 c         1 MOL      0.703778
     66 O11         7.9340   -5.4060    2.6590 o         1 MOL     -0.644235
     67 O12         6.5010   -5.0100    4.2990 o         1 MOL     -0.644235
     68 H28         5.5560   -3.2590    3.6400 hn        1 MOL      0.268705
     69 H29         4.2430   -3.8120    1.1170 h1        1 MOL      0.027848
     70 H30         5.8650   -5.5350    1.0630 hc        1 MOL     -0.000949
     71 H31         4.7770   -5.6950    2.3420 hc        1 MOL     -0.000949
     72 N7          6.1620   -3.2890   -0.5050 n         1 MOL     -0.225176
     73 C23         7.1800   -2.7410   -1.4740 c3        1 MOL     -0.199101
     74 C24         6.8940   -1.3180   -1.7260 c         1 MOL      0.608858
     75 O13         7.8720   -0.6130   -1.8980 o         1 MOL     -0.554352
     76 H32         5.2960   -3.6310   -0.9000 hn        1 MOL      0.196407
     77 H33         7.1760   -3.3750   -2.3560 h1        1 MOL      0.122358
     78 H34         8.1920   -2.7610   -1.0480 h1        1 MOL      0.122358
     79 N8          5.6690   -0.8460   -1.7020 n         1 MOL     -0.516796
     80 C25         5.3240    0.5570   -1.9720 c3        1 MOL     -0.065302
     81 C26         5.6380    1.4770   -0.7650 c         1 MOL      0.681641
     82 O14         5.7280    1.0190    0.3830 o         1 MOL     -0.503175
     83 C27         3.8680    0.5720   -2.4730 c3        1 MOL      0.362334
     84 C28         3.5980    1.7420   -3.3890 c3        1 MOL     -0.211109
     85 O15         3.0490    0.6240   -1.2580 oh        1 MOL     -0.443462
     86 H35         4.9980   -1.5640   -1.4890 hn        1 MOL      0.238305
     87 H36         5.9660    0.8310   -2.8200 h1        1 MOL      0.089241
     88 H37         3.8150   -0.2590   -3.1870 h1        1 MOL      0.015740
     89 H38         2.2610    1.1250   -1.4790 ho        1 MOL      0.451578
     90 H39         4.2690    1.7950   -4.2430 hc        1 MOL      0.052558
     91 H40         2.5660    1.6380   -3.7310 hc        1 MOL      0.052558
     92 H41         3.6470    2.7330   -2.9200 hc        1 MOL      0.052558
     93 N9          5.7080    2.7870   -0.9650 n         1 MOL     -0.578793
     94 C29         5.7610    3.8250    0.0590 c3        1 MOL     -0.008278
     95 C30         4.3570    4.5510    0.2660 c         1 MOL      0.416314
     96 O16         4.3410    5.5920    0.9820 o         1 MOL     -0.530489
     97 C31         6.9210    4.7540   -0.2160 c3        1 MOL      0.179717
     98 C32         6.7160    5.3930   -1.5990 c3        1 MOL      0.162882
     99 C33         8.2910    4.0010    0.0050 c3        1 MOL     -0.279113
    100 C34         7.6760    6.5020   -1.8670 c3        1 MOL     -0.352932
    101 H42         5.5840    3.1860   -1.8870 hn        1 MOL      0.209607
    102 H43         5.9910    3.3640    1.0200 h1        1 MOL      0.115937
    103 H44         6.8250    5.5020    0.5800 hc        1 MOL     -0.003110
    104 H45         5.7040    5.8000   -1.7060 hc        1 MOL      0.000208
    105 H46         6.8690    4.6230   -2.3590 hc        1 MOL      0.000208
    106 H47         8.3590    3.0080   -0.4310 hc        1 MOL      0.082990
    107 H48         9.1190    4.5000   -0.4930 hc        1 MOL      0.082990
    108 H49         8.5740    3.9260    1.0580 hc        1 MOL      0.082990
    109 H50         7.6250    7.1880   -1.0290 hc        1 MOL      0.076135
    110 H51         8.6390    6.0040   -1.9790 hc        1 MOL      0.076135
    111 H52         7.4370    6.9430   -2.8390 hc        1 MOL      0.076135
    112 N10         3.2570    4.1850   -0.4960 n         1 MOL     -0.029942
    113 C35         1.8950    4.8230   -0.6000 c3        1 MOL     -0.399121
    114 C36         0.8170    3.8250   -0.8430 c         1 MOL      0.906453
    115 O17         1.0700    2.7910   -1.5130 o         1 MOL     -0.574685
    116 C37         1.9110    5.9580   -1.6580 c3        1 MOL      0.384675
    117 C38         2.0520    5.4260   -3.0740 c3        1 MOL     -0.198213
    118 O18         2.9460    6.8310   -1.3040 oh        1 MOL     -0.608188
    119 H53         3.2840    3.2720   -0.9230 hn        1 MOL     -0.016021
    120 H54         1.6800    5.3150    0.3440 h1        1 MOL      0.132553
    121 H55         0.9590    6.4870   -1.5630 h1        1 MOL      0.009368
    122 H56         3.5510    6.4230   -0.6650 ho        1 MOL      0.371473
    123 H57         1.0940    4.9900   -3.3620 hc        1 MOL      0.049847
    124 H58         2.3090    6.2240   -3.7590 hc        1 MOL      0.049847
    125 H59         2.7990    4.6360   -3.1500 hc        1 MOL      0.049847
    126 N11        -0.3080    4.0800   -0.1530 n         1 MOL     -0.763737
    127 C39        -1.3740    3.0960   -0.0120 c3        1 MOL      0.125882
    128 C40        -2.4130    3.1660   -1.1520 c         1 MOL      0.569530
    129 O19        -2.4460    4.0540   -2.0450 o         1 MOL     -0.572357
    130 C41        -2.0580    3.2110    1.3610 c3        1 MOL      0.497716
    131 C42        -2.7140    4.6040    1.5830 c3        1 MOL     -0.324236
    132 O20        -1.1050    3.1570    2.3630 oh        1 MOL     -0.619978
    133 H60        -0.3530    4.8960    0.4390 hn        1 MOL      0.366047
    134 H61        -0.8810    2.1230    0.0090 h1        1 MOL     -0.025176
    135 H62        -2.7640    2.3950    1.5270 h1        1 MOL     -0.063698
    136 H63        -0.8490    2.2410    2.4520 ho        1 MOL      0.354589
    137 H64        -1.9740    5.3890    1.6710 hc        1 MOL      0.077319
    138 H65        -3.4260    4.8290    0.7940 hc        1 MOL      0.077319
    139 H66        -3.1580    4.6940    2.5770 hc        1 MOL      0.077319
    140 N12        -3.3540    2.2730   -1.0550 n         1 MOL     -0.356004
    141 C43        -4.4580    2.0680   -2.0620 c3        1 MOL     -0.007660
    142 C44        -4.7390    0.5840   -2.4640 c         1 MOL      0.687534
    143 O21        -4.8800    0.3430   -3.6460 o         1 MOL     -0.607579
    144 C45        -5.8030    2.7600   -1.5480 c3        1 MOL     -0.187752
    145 C46        -6.9330    2.5370   -2.6000 c3        1 MOL     -0.063136
    146 C47        -8.1120    3.3750   -2.2240 c3        1 MOL      0.089455
    147 C48        -7.8090    4.9140   -2.4310 c3        1 MOL      0.083221
    148 N13        -8.9510    5.6970   -1.9230 n4        1 MOL     -0.580914
    149 H67        -3.4780    1.6410   -0.2780 hn        1 MOL      0.108527
    150 H68        -4.2290    2.5860   -2.9830 h1        1 MOL      0.086754
    151 H69        -5.6300    3.8110   -1.3060 hc        1 MOL      0.076128
    152 H70        -6.0530    2.2320   -0.6200 hc        1 MOL      0.076128
    153 H71        -7.2520    1.4870   -2.5950 hc        1 MOL      0.047612
    154 H72        -6.6460    2.7780   -3.6170 hc        1 MOL      0.047612
    155 H73        -8.4790    3.2330   -1.2010 hc        1 MOL      0.012772
    156 H74        -8.9380    3.1650   -2.9010 hc        1 MOL      0.012772
    157 H75        -7.5120    5.1360   -3.4480 hx        1 MOL      0.064801
    158 H76        -6.9570    5.1560   -1.8000 hx        1 MOL      0.064801
    159 H77        -9.1890    5.3690   -1.0050 hn        1 MOL      0.387690
    160 H78        -8.5980    6.6350   -1.8780 hn        1 MOL      0.387690
    161 H79        -9.6970    5.5860   -2.5980 hn        1 MOL      0.387690
    162 N14        -4.7170   -0.3190   -1.4630 n         1 MOL     -0.171397
    163 C49        -4.7720   -1.7090   -1.7070 c3        1 MOL     -0.668774
    164 C50        -6.2260   -2.1820   -1.5740 c         1 MOL      0.494678
    165 O22        -6.9760   -1.7450   -0.7080 o         1 MOL     -0.497938
    166 C51        -3.7690   -2.4420   -0.7480 c3        1 MOL      0.988434
    167 C52        -3.4500   -3.8690   -1.1160 c3        1 MOL     -0.242942
    168 C53        -3.3500   -4.2880   -2.6020 c         1 MOL      0.461170
    169 O23        -4.3750   -4.7000   -3.2280 o         1 MOL     -0.652085
    170 O24        -2.1580   -4.2330   -3.0510 o         1 MOL     -0.652085
    171 H80        -4.6120   -0.0180   -0.5040 hn        1 MOL      0.103604
    172 H81        -4.4450   -1.7870   -2.7430 h1        1 MOL      0.256298
    173 H82        -4.0380   -2.4050    0.3020 hc        1 MOL     -0.216485
    174 H83        -2.8650   -1.8360   -0.7010 hc        1 MOL     -0.216485
    175 H84        -4.2310   -4.4090   -0.5950 hc        1 MOL      0.021606
    176 H85        -2.5240   -4.2110   -0.6630 hc        1 MOL      0.021606
    177 N15        -6.6760   -2.9820   -2.5290 n         1 MOL     -0.297670
    178 C54        -8.0020   -3.5670   -2.5790 c3        1 MOL     -0.008668
    179 H86        -7.9570   -4.5980   -2.2300 h1        1 MOL      0.046481
    180 H87        -8.6760   -2.9960   -1.9400 h1        1 MOL      0.046481
    181 H88        -8.3700   -3.5470   -3.6050 h1        1 MOL      0.046481
    182 H89        -5.9280   -3.1770   -3.1740 hn        1 MOL      0.309202
    183 Ca1         0.2900   -4.8980   -3.3390 Ca        1 MOL      1.683324
    184 O25         2.1430   -3.7320   -4.7600 oh        1 MOL     -0.854338
    185 H90         1.9530   -2.8210   -5.0040 ho        1 MOL      0.421951
    186 H91         2.6490   -4.0740   -5.4970 ho        1 MOL      0.421951
    187 O26         1.5710   -6.5650   -5.4490 oh        1 MOL     -0.854338
    188 H92         0.8710   -6.7170   -6.0810 ho        1 MOL      0.421951
    189 H93         2.3740   -6.7370   -5.9370 ho        1 MOL      0.421951
    190 O27        -0.5300   -4.6470   -5.7170 oh        1 MOL     -0.854338
    191 H94        -0.1010   -4.4430   -6.5500 ho        1 MOL      0.421951
    192 H95        -1.4510   -4.7840   -5.9590 ho        1 MOL      0.421951
@<TRIPOS>BOND
     1    1    2 1   
     2    1    4 1   
     3    1    5 1   
     4    1    6 1   
     5    2    3 2   
     6    2    7 1   
     7    7    8 1   
     8    7   15 1   
     9    8    9 1   
    10    8   11 1   
    11    8   16 1   
    12    9   10 2   
    13    9   19 1   
    14   11   12 1   
    15   11   17 1   
    16   11   18 1   
    17   12   13 1   
    18   12   14 1   
    19   19   20 1   
    20   19   28 1   
    21   20   21 1   
    22   20   23 1   
    23   20   29 1   
    24   21   22 2   
    25   21   41 1   
    26   23   24 1   
    27   23   30 1   
    28   23   31 1   
    29   24   25 1   
    30   24   32 1   
    31   24   33 1   
    32   25   26 1   
    33   25   34 1   
    34   25   35 1   
    35   26   27 1   
    36   26   36 1   
    37   26   37 1   
    38   27   38 1   
    39   27   39 1   
    40   27   40 1   
    41   41   42 1   
    42   41   49 1   
    43   42   43 1   
    44   42   45 1   
    45   42   50 1   
    46   43   44 2   
    47   43   53 1   
    48   45   46 1   
    49   45   51 1   
    50   45   52 1   
    51   46   47 1   
    52   46   48 1   
    53   53   54 1   
    54   53   57 1   
    55   54   55 1   
    56   54   58 1   
    57   54   59 1   
    58   55   56 2   
    59   55   60 1   
    60   60   61 1   
    61   60   68 1   
    62   61   62 1   
    63   61   64 1   
    64   61   69 1   
    65   62   63 2   
    66   62   72 1   
    67   64   65 1   
    68   64   70 1   
    69   64   71 1   
    70   65   66 1   
    71   65   67 1   
    72   72   73 1   
    73   72   76 1   
    74   73   74 1   
    75   73   77 1   
    76   73   78 1   
    77   74   75 2   
    78   74   79 1   
    79   79   80 1   
    80   79   86 1   
    81   80   81 1   
    82   80   83 1   
    83   80   87 1   
    84   81   82 2   
    85   81   93 1   
    86   83   84 1   
    87   83   85 1   
    88   83   88 1   
    89   84   90 1   
    90   84   91 1   
    91   84   92 1   
    92   85   89 1   
    93   93   94 1   
    94   93  101 1   
    95   94   95 1   
    96   94   97 1   
    97   94  102 1   
    98   95   96 2   
    99   95  112 1   
   100   97   98 1   
   101   97   99 1   
   102   97  103 1   
   103   98  100 1   
   104   98  104 1   
   105   98  105 1   
   106   99  106 1   
   107   99  107 1   
   108   99  108 1   
   109  100  109 1   
   110  100  110 1   
   111  100  111 1   
   112  112  113 1   
   113  112  119 1   
   114  113  114 1   
   115  113  116 1   
   116  113  120 1   
   117  114  115 2   
   118  114  126 1   
   119  116  117 1   
   120  116  118 1   
   121  116  121 1   
   122  117  123 1   
   123  117  124 1   
   124  117  125 1   
   125  118  122 1   
   126  126  127 1   
   127  126  133 1   
   128  127  128 1   
   129  127  130 1   
   130  127  134 1   
   131  128  129 2   
   132  128  140 1   
   133  130  131 1   
   134  130  132 1   
   135  130  135 1   
   136  131  137 1   
   137  131  138 1   
   138  131  139 1   
   139  132  136 1   
   140  140  141 1   
   141  140  149 1   
   142  141  142 1   
   143  141  144 1   
   144  141  150 1   
   145  142  143 2   
   146  142  162 1   
   147  144  145 1   
   148  144  151 1   
   149  144  152 1   
   150  145  146 1   
   151  145  153 1   
   152  145  154 1   
   153  146  147 1   
   154  146  155 1   
   155  146  156 1   
   156  147  148 1   
   157  147  157 1   
   158  147  158 1   
   159  148  159 1   
   160  148  160 1   
   161  148  161 1   
   162  162  163 1   
   163  162  171 1   
   164  163  164 1   
   165  163  166 1   
   166  163  172 1   
   167  164  165 2   
   168  164  177 1   
   169  166  167 1   
   170  166  173 1   
   171  166  174 1   
   172  167  168 1   
   173  167  175 1   
   174  167  176 1   
   175  168  169 1   
   176  168  170 1   
   177  177  178 1   
   178  177  182 1   
   179  178  179 1   
   180  178  180 1   
   181  178  181 1   
   182  184  185 1   
   183  184  186 1   
   184  187  188 1   
   185  187  189 1   
   186  190  191 1   
   187  190  192 1   
@<TRIPOS>SUBSTRUCTURE
     1 MOL         1 TEMP              0 ****  ****    0 ROOT
