@<TRIPOS>MOLECULE
MOL
  198   191     1     0     0
SMALL
resp


@<TRIPOS>ATOM
      1 C1          4.0810   -6.3620    1.3880 c3        1 MOL     -0.460710
      2 C2          5.6410   -6.0000    1.2670 c         1 MOL      0.619263
      3 O1          6.3440   -6.8950    0.8130 o         1 MOL     -0.532352
      4 H1          3.9440   -7.1230    2.1570 hc        1 MOL      0.117191
      5 H2          3.5200   -5.4670    1.6590 hc        1 MOL      0.117191
      6 H3          3.7200   -6.7420    0.4320 hc        1 MOL      0.117191
      7 N1          6.1170   -4.8320    1.6600 n         1 MOL     -0.537396
      8 C3          7.4540   -4.2920    1.2980 c3        1 MOL      0.095729
      9 C4          7.7670   -4.1450   -0.2470 c         1 MOL      0.481814
     10 O2          6.9720   -4.5510   -1.1170 o         1 MOL     -0.497440
     11 C5          8.5410   -5.0560    2.1010 c3        1 MOL     -0.215421
     12 C6          9.9720   -4.4910    1.9210 c         1 MOL      0.745744
     13 O3         10.8870   -5.2420    1.6350 o         1 MOL     -0.709657
     14 O4         10.1080   -3.2750    2.1250 o         1 MOL     -0.709657
     15 H4          5.4350   -4.2940    2.1810 hn        1 MOL      0.318568
     16 H5          7.3830   -3.2690    1.6860 h1        1 MOL      0.059131
     17 H6          8.5890   -6.0490    1.6470 hc        1 MOL      0.055696
     18 H7          8.3260   -5.1360    3.1710 hc        1 MOL      0.055696
     19 N2          8.8720   -3.4580   -0.4410 n         1 MOL     -0.228525
     20 C7          9.2560   -2.6810   -1.6490 c3        1 MOL      0.129218
     21 C8          8.2770   -1.4740   -1.9080 c         1 MOL      0.458034
     22 O5          8.0300   -1.0020   -2.9980 o         1 MOL     -0.523172
     23 C9          9.3440   -3.6980   -2.8240 c3        1 MOL      0.060254
     24 C10        10.3640   -4.8160   -2.6350 c3        1 MOL     -0.300821
     25 C11        11.7920   -4.4170   -2.0700 c3        1 MOL     -0.141617
     26 C12        12.6830   -5.6870   -1.8040 c3        1 MOL     -0.003181
     27 N3         14.1510   -5.2600   -1.6680 n4        1 MOL     -0.170489
     28 H8          9.3550   -3.1530    0.3860 hn        1 MOL      0.130958
     29 H9         10.2180   -2.1950   -1.5600 h1        1 MOL      0.035868
     30 H10         9.7260   -3.0840   -3.6420 hc        1 MOL      0.019765
     31 H11         8.3480   -4.0850   -3.0550 hc        1 MOL      0.019765
     32 H12        10.3840   -5.2840   -3.6200 hc        1 MOL      0.112040
     33 H13         9.9400   -5.5300   -1.9150 hc        1 MOL      0.112040
     34 H14        11.6190   -3.8940   -1.1260 hc        1 MOL      0.071130
     35 H15        12.2140   -3.7530   -2.8200 hc        1 MOL      0.071130
     36 H16        12.6190   -6.3280   -2.6730 hx        1 MOL      0.100577
     37 H17        12.3730   -6.0880   -0.8350 hx        1 MOL      0.100577
     38 H18        14.3280   -4.7240   -0.8270 hn        1 MOL      0.272978
     39 H19        14.7860   -6.0450   -1.6280 hn        1 MOL      0.272978
     40 H20        14.4790   -4.7220   -2.4600 hn        1 MOL      0.272978
     41 N4          7.6320   -0.9780   -0.8170 n         1 MOL     -0.506399
     42 C13         6.9050    0.2580   -0.8260 c3        1 MOL      0.322667
     43 C14         6.7260    0.8960    0.6020 c         1 MOL      0.390313
     44 O6          6.3530    0.1610    1.4910 o         1 MOL     -0.517178
     45 C15         5.4900   -0.0040   -1.3420 c3        1 MOL     -0.467486
     46 C16         4.6230    1.1810   -1.4650 c         1 MOL      1.013673
     47 O7          5.0610    2.2950   -1.8490 o         1 MOL     -0.775331
     48 O8          3.4160    1.0360   -1.5520 o         1 MOL     -0.775331
     49 H21         7.9610   -1.3050    0.0860 hn        1 MOL      0.279860
     50 H22         7.4130    1.0320   -1.4050 h1        1 MOL      0.021227
     51 H23         5.1130   -0.7130   -0.6030 hc        1 MOL      0.120015
     52 H24         5.5960   -0.6260   -2.2360 hc        1 MOL      0.120015
     53 N5          7.0890    2.1590    0.9010 n         1 MOL     -0.407913
     54 C17         7.4850    3.2290   -0.0610 c3        1 MOL     -0.002667
     55 C18         6.8580    4.5060    0.3830 c         1 MOL      0.436813
     56 O9          7.4850    5.3950    1.0550 o         1 MOL     -0.553617
     57 H25         6.9770    2.4610    1.8580 hn        1 MOL      0.309487
     58 H26         7.1320    2.9780   -1.0570 h1        1 MOL      0.061883
     59 H27         8.5580    3.3570   -0.1180 h1        1 MOL      0.061883
     60 N6          5.5450    4.5660    0.1420 n         1 MOL     -0.091110
     61 C19         4.5760    5.5620    0.5930 c3        1 MOL     -0.106709
     62 C20         3.1650    4.9900    0.6820 c         1 MOL      0.430809
     63 O10         2.7630    4.0800   -0.0450 o         1 MOL     -0.524227
     64 C21         4.6880    6.7920   -0.3200 c3        1 MOL      0.084765
     65 C22         4.5630    6.5540   -1.7710 c         1 MOL      0.578826
     66 O11         4.0450    5.5090   -2.2140 o         1 MOL     -0.675838
     67 O12         4.9340    7.5050   -2.5180 o         1 MOL     -0.675838
     68 H28         5.2500    3.8210   -0.4700 hn        1 MOL      0.054271
     69 H29         4.9150    5.8290    1.6000 h1        1 MOL      0.049830
     70 H30         5.6460    7.2310   -0.0440 hc        1 MOL      0.003563
     71 H31         4.0430    7.6020    0.0170 hc        1 MOL      0.003563
     72 N7          2.2910    5.7070    1.3650 n         1 MOL     -0.252768
     73 C23         0.8410    5.4490    1.3710 c3        1 MOL     -0.133628
     74 C24         0.4550    4.2460    2.2360 c         1 MOL      0.545322
     75 O13        -0.5230    4.2710    2.9690 o         1 MOL     -0.561277
     76 H32         2.6470    6.4530    1.9460 hn        1 MOL      0.256200
     77 H33         0.4740    5.4460    0.3390 h1        1 MOL      0.086992
     78 H34         0.3460    6.2030    1.9900 h1        1 MOL      0.086992
     79 N8          1.2060    3.1810    2.2300 n         1 MOL     -0.395039
     80 C25         0.9600    2.0260    3.1150 c3        1 MOL     -0.105022
     81 C26         0.2100    0.9770    2.3660 c         1 MOL      0.537714
     82 O14         0.3360    0.8320    1.1290 o         1 MOL     -0.530547
     83 C27         2.3170    1.6420    3.5700 c3        1 MOL      0.355563
     84 C28         3.2200    1.1510    2.5220 c3        1 MOL      0.173013
     85 O15         3.0440    2.5920    4.3230 oh        1 MOL     -0.619890
     86 H35         2.0780    3.2250    1.7130 hn        1 MOL      0.205772
     87 H36         0.4240    2.3420    4.0080 h1        1 MOL      0.107159
     88 H37         2.2250    0.7770    4.2380 h1        1 MOL     -0.053267
     89 H38         2.4880    3.0090    4.9760 ho        1 MOL      0.393462
     90 H39         4.1930    0.8570    2.9140 hc        1 MOL     -0.040330
     91 H40         2.7990    0.2530    2.0700 hc        1 MOL     -0.040330
     92 H41         3.2920    1.8930    1.7290 hc        1 MOL     -0.040330
     93 N9         -0.5230    0.0940    3.0680 n         1 MOL     -0.163438
     94 C29        -1.0390   -1.2080    2.5670 c3        1 MOL     -0.404328
     95 C30        -2.3230   -1.1420    1.7970 c         1 MOL      0.550495
     96 O16        -2.7550   -2.0630    1.0840 o         1 MOL     -0.529991
     97 C31        -0.9970   -2.2140    3.7440 c3        1 MOL      0.293368
     98 C32        -1.9900   -1.7390    4.8630 c3        1 MOL     -0.013100
     99 C33         0.4220   -2.4070    4.3430 c3        1 MOL     -0.353193
    100 C34        -2.5620   -2.9910    5.6630 c3        1 MOL     -0.219103
    101 H42        -0.6690    0.2830    4.0500 hn        1 MOL      0.153817
    102 H43        -0.2840   -1.6210    1.8960 h1        1 MOL      0.192923
    103 H44        -1.4140   -3.1410    3.3500 hc        1 MOL      0.009971
    104 H45        -2.8730   -1.3030    4.4020 hc        1 MOL      0.026800
    105 H46        -1.4320   -1.0940    5.5560 hc        1 MOL      0.026800
    106 H47         0.9980   -1.5270    4.6510 hc        1 MOL      0.084271
    107 H48         0.3050   -3.0070    5.2380 hc        1 MOL      0.084271
    108 H49         1.0820   -2.9130    3.6400 hc        1 MOL      0.084271
    109 H50        -1.7820   -3.5790    6.1440 hc        1 MOL      0.061253
    110 H51        -3.3250   -2.6810    6.3780 hc        1 MOL      0.061253
    111 H52        -3.0420   -3.7410    5.0400 hc        1 MOL      0.061253
    112 N10        -2.9470    0.0160    1.8600 n         1 MOL     -0.196845
    113 C35        -4.0770    0.4480    0.9600 c3        1 MOL     -0.326995
    114 C36        -5.1100    1.1660    1.8380 c         1 MOL      0.632023
    115 O17        -4.8260    1.8220    2.8320 o         1 MOL     -0.527739
    116 C37        -3.5790    1.2870   -0.1970 c3        1 MOL      0.471731
    117 C38        -3.1440    2.7460    0.0640 c3        1 MOL     -0.437263
    118 O18        -2.4580    0.6030   -0.7830 oh        1 MOL     -0.600927
    119 H53        -2.6000    0.7460    2.4550 hn        1 MOL      0.169876
    120 H54        -4.5240   -0.4220    0.4750 h1        1 MOL      0.146126
    121 H55        -4.3240    1.3020   -0.9880 h1        1 MOL      0.031816
    122 H56        -1.9200    0.3170   -0.0330 ho        1 MOL      0.359959
    123 H57        -3.9880    3.4130    0.2500 hc        1 MOL      0.102423
    124 H58        -2.4180    2.7060    0.8670 hc        1 MOL      0.102423
    125 H59        -2.6740    3.0810   -0.8590 hc        1 MOL      0.102423
    126 N11        -6.3630    1.0100    1.4240 n         1 MOL     -0.429555
    127 C39        -7.6130    1.5240    2.0600 c3        1 MOL     -0.049666
    128 C40        -8.8710    0.6650    1.6970 c         1 MOL      0.553428
    129 O19        -9.4870    0.1740    2.5870 o         1 MOL     -0.525345
    130 C41        -7.8820    2.9930    1.7900 c3        1 MOL      0.212373
    131 C42        -8.9890    3.5600    2.6760 c3        1 MOL     -0.343813
    132 O20        -8.2060    3.1350    0.4160 oh        1 MOL     -0.630045
    133 H60        -6.5540    0.4530    0.6070 hn        1 MOL      0.249427
    134 H61        -7.5200    1.4860    3.1470 h1        1 MOL      0.111117
    135 H62        -6.9530    3.5320    1.9380 h1        1 MOL      0.082036
    136 H63        -8.7260    3.9420    0.3960 ho        1 MOL      0.405447
    137 H64        -9.9470    3.0510    2.6200 hc        1 MOL      0.098970
    138 H65        -8.6570    3.5950    3.7170 hc        1 MOL      0.098970
    139 H66        -9.2200    4.6040    2.4700 hc        1 MOL      0.098970
    140 N12        -9.2040    0.4550    0.3860 n         1 MOL     -0.299694
    141 C43       -10.1990   -0.4860   -0.1540 c3        1 MOL     -0.214167
    142 C44        -9.7420   -1.1610   -1.4020 c         1 MOL      0.583285
    143 O21        -9.1810   -0.5640   -2.2960 o         1 MOL     -0.513566
    144 C45       -11.4710    0.3320   -0.3690 c3        1 MOL     -0.348118
    145 C46       -12.5740   -0.6240   -0.8930 c3        1 MOL      0.171225
    146 C47       -13.8840    0.1040   -0.6690 c3        1 MOL     -0.028182
    147 C48       -15.1340   -0.6320   -1.1180 c3        1 MOL     -0.067066
    148 N13       -15.0420   -2.0860   -0.9880 n4        1 MOL     -0.250721
    149 H67        -8.6460    0.9500   -0.2900 hn        1 MOL      0.270650
    150 H68       -10.4820   -1.2250    0.5920 h1        1 MOL      0.135002
    151 H69       -11.4430    1.1760   -1.0460 hc        1 MOL      0.132330
    152 H70       -11.7380    0.8020    0.5760 hc        1 MOL      0.132330
    153 H71       -12.4880   -1.5910   -0.3880 hc        1 MOL      0.043365
    154 H72       -12.4530   -0.7590   -1.9750 hc        1 MOL      0.043365
    155 H73       -13.8430    1.1020   -1.1070 hc        1 MOL      0.010283
    156 H74       -13.8700    0.2720    0.4140 hc        1 MOL      0.010283
    157 H75       -15.3620   -0.3380   -2.1480 hx        1 MOL      0.087633
    158 H76       -15.9470   -0.2500   -0.4960 hx        1 MOL      0.087633
    159 H77       -15.9100   -2.5140   -1.2630 hn        1 MOL      0.281952
    160 H78       -14.2980   -2.4060   -1.5930 hn        1 MOL      0.281952
    161 H79       -14.7150   -2.4010   -0.0790 hn        1 MOL      0.281952
    162 N14       -10.0030   -2.4460   -1.4520 n         1 MOL     -0.301390
    163 C49        -9.5020   -3.3670   -2.4680 c3        1 MOL      0.130353
    164 C50        -7.9500   -3.5400   -2.3810 c         1 MOL      0.321200
    165 O22        -7.2570   -3.0520   -3.2940 o         1 MOL     -0.497592
    166 C51       -10.2320   -4.7650   -2.3740 c3        1 MOL      0.006423
    167 C52       -11.6130   -4.7680   -3.0480 c3        1 MOL     -0.272622
    168 C53       -12.6620   -3.9320   -2.2990 c         1 MOL      0.705583
    169 O23       -12.7300   -3.9970   -1.0440 o         1 MOL     -0.708140
    170 O24       -13.3060   -3.0600   -2.9130 o         1 MOL     -0.708140
    171 H80       -10.6930   -2.8300   -0.8270 hn        1 MOL      0.199431
    172 H81        -9.6730   -2.9020   -3.4420 h1        1 MOL      0.067432
    173 H82       -10.3780   -5.1290   -1.3690 hc        1 MOL      0.044774
    174 H83        -9.6970   -5.5710   -2.8760 hc        1 MOL      0.044774
    175 H84       -11.8760   -5.8220   -3.0200 hc        1 MOL      0.076874
    176 H85       -11.4620   -4.3850   -4.0580 hc        1 MOL      0.076874
    177 N15        -7.3450   -4.0700   -1.2850 n         1 MOL     -0.366270
    178 C54        -7.9220   -4.6680   -0.1220 c3        1 MOL     -0.033167
    179 H86        -7.4500   -5.6330    0.0620 h1        1 MOL      0.046274
    180 H87        -7.7660   -4.0170    0.7380 h1        1 MOL      0.046274
    181 H88        -8.9910   -4.8110   -0.2800 h1        1 MOL      0.046274
    182 H89        -6.3430   -4.0190   -1.2090 hn        1 MOL      0.315634
    183 Ca1         2.5630    3.5130   -2.7440 Ca        1 MOL      1.783336
    184 O25         0.5770    2.2710   -1.3960 oh        1 MOL     -0.875423
    185 H90        -0.2800    1.8390   -1.4360 ho        1 MOL      0.431962
    186 H91         0.8450    2.1830   -0.4790 ho        1 MOL      0.431962
    187 O26         0.5010    5.2500   -2.0350 oh        1 MOL     -0.875423
    188 H92         0.2510    6.1040   -1.6780 ho        1 MOL      0.431962
    189 H93        -0.3110    4.8680   -2.3710 ho        1 MOL      0.431962
    190 O27         2.9140    4.8860   -5.1180 oh        1 MOL     -0.875423
    191 H94         3.2820    5.7730   -5.1670 ho        1 MOL      0.431962
    192 H95         2.3190    4.8360   -5.8660 ho        1 MOL      0.431962
    193 O28         0.6380    3.2960   -4.6360 oh        1 MOL     -0.875423
    194 H96         0.3930    2.8930   -5.4730 ho        1 MOL      0.431962
    195 H97        -0.1210    3.8310   -4.4000 ho        1 MOL      0.431962
    196 O29         3.3860    1.9000   -4.6590 oh        1 MOL     -0.875423
    197 H98         3.8380    1.0530   -4.6900 ho        1 MOL      0.431962
    198 H99         3.0790    2.0350   -5.5530 ho        1 MOL      0.431962
@<TRIPOS>BOND
     1    1    2 1   
     2    1    4 1   
     3    1    5 1   
     4    1    6 1   
     5    2    3 2   
     6    2    7 1   
     7    7    8 1   
     8    7   15 1   
     9    8    9 1   
    10    8   11 1   
    11    8   16 1   
    12    9   10 2   
    13    9   19 1   
    14   11   12 1   
    15   11   17 1   
    16   11   18 1   
    17   12   13 1   
    18   12   14 1   
    19   19   20 1   
    20   19   28 1   
    21   20   21 1   
    22   20   23 1   
    23   20   29 1   
    24   21   22 2   
    25   21   41 1   
    26   23   24 1   
    27   23   30 1   
    28   23   31 1   
    29   24   25 1   
    30   24   32 1   
    31   24   33 1   
    32   25   26 1   
    33   25   34 1   
    34   25   35 1   
    35   26   27 1   
    36   26   36 1   
    37   26   37 1   
    38   27   38 1   
    39   27   39 1   
    40   27   40 1   
    41   41   42 1   
    42   41   49 1   
    43   42   43 1   
    44   42   45 1   
    45   42   50 1   
    46   43   44 2   
    47   43   53 1   
    48   45   46 1   
    49   45   51 1   
    50   45   52 1   
    51   46   47 1   
    52   46   48 1   
    53   53   54 1   
    54   53   57 1   
    55   54   55 1   
    56   54   58 1   
    57   54   59 1   
    58   55   56 2   
    59   55   60 1   
    60   60   61 1   
    61   60   68 1   
    62   61   62 1   
    63   61   64 1   
    64   61   69 1   
    65   62   63 2   
    66   62   72 1   
    67   64   65 1   
    68   64   70 1   
    69   64   71 1   
    70   65   66 1   
    71   65   67 1   
    72   72   73 1   
    73   72   76 1   
    74   73   74 1   
    75   73   77 1   
    76   73   78 1   
    77   74   75 2   
    78   74   79 1   
    79   79   80 1   
    80   79   86 1   
    81   80   81 1   
    82   80   83 1   
    83   80   87 1   
    84   81   82 2   
    85   81   93 1   
    86   83   84 1   
    87   83   85 1   
    88   83   88 1   
    89   84   90 1   
    90   84   91 1   
    91   84   92 1   
    92   85   89 1   
    93   93   94 1   
    94   93  101 1   
    95   94   95 1   
    96   94   97 1   
    97   94  102 1   
    98   95   96 2   
    99   95  112 1   
   100   97   98 1   
   101   97   99 1   
   102   97  103 1   
   103   98  100 1   
   104   98  104 1   
   105   98  105 1   
   106   99  106 1   
   107   99  107 1   
   108   99  108 1   
   109  100  109 1   
   110  100  110 1   
   111  100  111 1   
   112  112  113 1   
   113  112  119 1   
   114  113  114 1   
   115  113  116 1   
   116  113  120 1   
   117  114  115 2   
   118  114  126 1   
   119  116  117 1   
   120  116  118 1   
   121  116  121 1   
   122  117  123 1   
   123  117  124 1   
   124  117  125 1   
   125  118  122 1   
   126  126  127 1   
   127  126  133 1   
   128  127  128 1   
   129  127  130 1   
   130  127  134 1   
   131  128  129 2   
   132  128  140 1   
   133  130  131 1   
   134  130  132 1   
   135  130  135 1   
   136  131  137 1   
   137  131  138 1   
   138  131  139 1   
   139  132  136 1   
   140  140  141 1   
   141  140  149 1   
   142  141  142 1   
   143  141  144 1   
   144  141  150 1   
   145  142  143 2   
   146  142  162 1   
   147  144  145 1   
   148  144  151 1   
   149  144  152 1   
   150  145  146 1   
   151  145  153 1   
   152  145  154 1   
   153  146  147 1   
   154  146  155 1   
   155  146  156 1   
   156  147  148 1   
   157  147  157 1   
   158  147  158 1   
   159  148  159 1   
   160  148  160 1   
   161  148  161 1   
   162  162  163 1   
   163  162  171 1   
   164  163  164 1   
   165  163  166 1   
   166  163  172 1   
   167  164  165 2   
   168  164  177 1   
   169  166  167 1   
   170  166  173 1   
   171  166  174 1   
   172  167  168 1   
   173  167  175 1   
   174  167  176 1   
   175  168  169 1   
   176  168  170 1   
   177  177  178 1   
   178  177  182 1   
   179  178  179 1   
   180  178  180 1   
   181  178  181 1   
   182  184  185 1   
   183  184  186 1   
   184  187  188 1   
   185  187  189 1   
   186  190  191 1   
   187  190  192 1   
   188  193  194 1   
   189  193  195 1   
   190  196  197 1   
   191  196  198 1   
@<TRIPOS>SUBSTRUCTURE
     1 MOL         1 TEMP              0 ****  ****    0 ROOT
