@<TRIPOS>MOLECULE
MOL
  192   187     1     0     0
SMALL
resp


@<TRIPOS>ATOM
      1 C1         -6.4840   -3.4360    4.5020 c3        1 MOL     -0.140400
      2 C2         -5.6330   -2.7390    3.3790 c         1 MOL      0.673253
      3 O1         -4.8920   -3.4990    2.7470 o         1 MOL     -0.567701
      4 H1         -5.9630   -4.3280    4.8500 hc        1 MOL      0.036412
      5 H2         -6.6190   -2.7460    5.3350 hc        1 MOL      0.036412
      6 H3         -7.4580   -3.7170    4.1000 hc        1 MOL      0.036412
      7 N1         -5.6980   -1.4040    3.2400 n         1 MOL     -0.622790
      8 C3         -5.1290   -0.5960    2.1930 c3        1 MOL      0.735829
      9 C4         -3.6210   -0.5390    2.0360 c         1 MOL     -0.026496
     10 O2         -3.1480    0.3890    1.4570 o         1 MOL     -0.223511
     11 C5         -5.6910    0.8180    2.3070 c3        1 MOL     -0.646458
     12 C6         -7.1730    0.9550    2.3190 c         1 MOL      0.851885
     13 O3         -7.8260    0.6630    3.3280 o         1 MOL     -0.717878
     14 O4         -7.8320    1.3610    1.3470 o         1 MOL     -0.717878
     15 H4         -6.3120   -0.8960    3.8630 hn        1 MOL      0.290953
     16 H5         -5.4600   -0.9630    1.2210 h1        1 MOL     -0.061727
     17 H6         -5.3570    1.4890    1.5160 hc        1 MOL      0.091992
     18 H7         -5.3200    1.2000    3.2590 hc        1 MOL      0.091992
     19 N2         -2.8260   -1.4900    2.4950 n         1 MOL     -0.305663
     20 C7         -1.3930   -1.3760    2.7170 c3        1 MOL      0.227793
     21 C8         -0.7780   -2.5280    1.9480 c         1 MOL      0.213259
     22 O5         -1.2600   -3.6320    2.1060 o         1 MOL     -0.421208
     23 C9         -0.9590   -1.3630    4.1490 c3        1 MOL     -0.470119
     24 C10        -1.4990   -0.1270    4.9780 c3        1 MOL      0.082797
     25 C11        -1.2190    1.2560    4.3960 c3        1 MOL     -0.033533
     26 C12        -1.7020    2.3240    5.3850 c3        1 MOL      0.094976
     27 N3         -1.0370    3.6840    5.1740 n4        1 MOL     -0.491471
     28 H8         -3.2630   -2.3590    2.7450 hn        1 MOL      0.218955
     29 H9         -1.1540   -0.4750    2.1680 h1        1 MOL      0.170442
     30 H10         0.1320   -1.4060    4.2220 hc        1 MOL      0.166502
     31 H11        -1.3210   -2.2920    4.5970 hc        1 MOL      0.166502
     32 H12        -1.1290   -0.1800    5.9990 hc        1 MOL      0.017138
     33 H13        -2.5660   -0.2050    5.1830 hc        1 MOL      0.017138
     34 H14        -1.6260    1.3250    3.3890 hc        1 MOL      0.042148
     35 H15        -0.1430    1.4350    4.3160 hc        1 MOL      0.042148
     36 H16        -1.5770    1.8970    6.3870 hx        1 MOL      0.045864
     37 H17        -2.7760    2.4390    5.2370 hx        1 MOL      0.045864
     38 H18        -1.2060    3.9760    4.2260 hn        1 MOL      0.360678
     39 H19        -1.4960    4.3380    5.7860 hn        1 MOL      0.360678
     40 H20        -0.0350    3.6020    5.3120 hn        1 MOL      0.360678
     41 N4          0.3250   -2.4750    1.1230 n         1 MOL     -0.091175
     42 C13         1.0880   -1.2780    0.6670 c3        1 MOL     -0.070255
     43 C14         1.6390   -0.4210    1.9330 c         1 MOL      0.663333
     44 O6          1.1620    0.7000    2.2680 o         1 MOL     -0.608300
     45 C15         0.3470   -0.5280   -0.3850 c3        1 MOL     -0.267562
     46 C16         0.0550   -1.3190   -1.6840 c         1 MOL      0.578597
     47 O7          0.6080   -2.3770   -1.8470 o         1 MOL     -0.649612
     48 O8         -0.7080   -0.8320   -2.6320 o         1 MOL     -0.649612
     49 H21         0.5670   -3.3020    0.5990 hn        1 MOL      0.074109
     50 H22         2.0150   -1.5360    0.1630 h1        1 MOL      0.025780
     51 H23         0.9440    0.2970   -0.7840 hc        1 MOL      0.082809
     52 H24        -0.5540   -0.0620    0.0010 hc        1 MOL      0.082809
     53 N5          2.5970   -0.9330    2.6960 n         1 MOL     -0.572100
     54 C17         3.5990   -1.9020    2.2730 c3        1 MOL      0.131781
     55 C18         4.8100   -2.0710    3.2610 c         1 MOL      0.549985
     56 O9          4.8450   -1.4220    4.2980 o         1 MOL     -0.531950
     57 H25         2.9920   -0.2620    3.3350 hn        1 MOL      0.316999
     58 H26         3.9240   -1.6840    1.2530 h1        1 MOL      0.020643
     59 H27         3.0750   -2.8330    2.0900 h1        1 MOL      0.020643
     60 N6          5.8070   -2.9060    2.9140 n         1 MOL     -0.591021
     61 C19         5.9120   -3.7380    1.7200 c3        1 MOL      0.273650
     62 C20         6.6430   -2.8800    0.6990 c         1 MOL      0.390363
     63 O10         7.3900   -1.9760    1.1140 o         1 MOL     -0.418882
     64 C21         6.7230   -5.0520    1.9770 c3        1 MOL     -0.218453
     65 C22         7.9110   -4.9500    3.0110 c         1 MOL      0.715861
     66 O11         8.3210   -3.8450    3.4530 o         1 MOL     -0.633013
     67 O12         8.4280   -6.0310    3.4380 o         1 MOL     -0.633013
     68 H28         6.6520   -2.8640    3.4590 hn        1 MOL      0.369647
     69 H29         4.9710   -4.0280    1.2540 h1        1 MOL     -0.057565
     70 H30         7.2120   -5.3340    1.0380 hc        1 MOL      0.025714
     71 H31         6.1140   -5.8930    2.3200 hc        1 MOL      0.025714
     72 N7          6.3460   -3.1240   -0.5920 n         1 MOL     -0.192335
     73 C23         7.0450   -2.6000   -1.7750 c3        1 MOL     -0.138291
     74 C24         6.7620   -1.1320   -2.0100 c         1 MOL      0.568276
     75 O13         7.6640   -0.3880   -2.4600 o         1 MOL     -0.528455
     76 H32         5.7500   -3.9290   -0.7180 hn        1 MOL      0.141695
     77 H33         6.6630   -3.1870   -2.6190 h1        1 MOL      0.088077
     78 H34         8.1300   -2.5820   -1.8270 h1        1 MOL      0.088077
     79 N8          5.5120   -0.7330   -1.8670 n         1 MOL     -0.494083
     80 C25         5.0050    0.6520   -2.1320 c3        1 MOL      0.031565
     81 C26         5.4210    1.6030   -0.9590 c         1 MOL      0.607586
     82 O14         5.8260    1.1200    0.0910 o         1 MOL     -0.500190
     83 C27         3.5730    0.6640   -2.5290 c3        1 MOL      0.327151
     84 C28         3.2900   -0.0550   -3.8200 c3        1 MOL     -0.240215
     85 O15         3.1640    2.0360   -2.7140 oh        1 MOL     -0.652637
     86 H35         4.8300   -1.4610   -1.6680 hn        1 MOL      0.208728
     87 H36         5.5200    1.0350   -3.0260 h1        1 MOL      0.078759
     88 H37         3.0230    0.1980   -1.7190 h1        1 MOL      0.077859
     89 H38         2.2490    2.0040   -3.0090 ho        1 MOL      0.424832
     90 H39         2.2280   -0.1690   -4.0680 hc        1 MOL      0.064749
     91 H40         3.7560    0.3560   -4.7230 hc        1 MOL      0.064749
     92 H41         3.6720   -1.0700   -3.7760 hc        1 MOL      0.064749
     93 N9          5.1660    2.9020   -1.0460 n         1 MOL     -0.486217
     94 C29         5.4180    3.9550   -0.0300 c3        1 MOL     -0.072498
     95 C30         4.2060    4.8330    0.1170 c         1 MOL      0.390378
     96 O16         4.2850    6.0120    0.3940 o         1 MOL     -0.491995
     97 C31         6.7370    4.6890   -0.3110 c3        1 MOL      0.152001
     98 C32         6.8910    5.3940   -1.6530 c3        1 MOL      0.270234
     99 C33         7.9890    3.7520   -0.0770 c3        1 MOL     -0.263463
    100 C34         7.9710    6.5310   -1.6410 c3        1 MOL     -0.338696
    101 H42         4.6570    3.1760   -1.8830 hn        1 MOL      0.219723
    102 H43         5.5160    3.4280    0.9250 h1        1 MOL      0.125735
    103 H44         6.7370    5.4430    0.4780 hc        1 MOL     -0.016309
    104 H45         5.9440    5.7660   -2.0460 hc        1 MOL     -0.043912
    105 H46         7.2000    4.6710   -2.4110 hc        1 MOL     -0.043912
    106 H47         7.9470    2.9430   -0.8120 hc        1 MOL      0.074030
    107 H48         8.9250    4.2950   -0.1350 hc        1 MOL      0.074030
    108 H49         7.9280    3.3220    0.9090 hc        1 MOL      0.074030
    109 H50         7.6290    7.0460   -2.5410 hc        1 MOL      0.072174
    110 H51         7.9070    7.2440   -0.8250 hc        1 MOL      0.072174
    111 H52         8.9500    6.0790   -1.7750 hc        1 MOL      0.072174
    112 N10         3.0620    4.3310   -0.3290 n         1 MOL     -0.065847
    113 C35         1.7410    5.0100   -0.2100 c3        1 MOL     -0.319105
    114 C36         0.5440    3.9950   -0.1910 c         1 MOL      0.604937
    115 O17         0.6630    2.9370   -0.7650 o         1 MOL     -0.422818
    116 C37         1.5320    6.0770   -1.2760 c3        1 MOL      0.551029
    117 C38         2.2060    5.9020   -2.6550 c3        1 MOL     -0.287612
    118 O18         1.8640    7.3240   -0.8150 oh        1 MOL     -0.640920
    119 H53         3.0410    3.3760   -0.6360 hn        1 MOL      0.116610
    120 H54         1.7520    5.4380    0.7940 h1        1 MOL      0.133291
    121 H55         0.4870    6.1490   -1.5590 h1        1 MOL     -0.072398
    122 H56         1.5910    7.8760   -1.5550 ho        1 MOL      0.378434
    123 H57         1.7770    4.9560   -2.9790 hc        1 MOL      0.067072
    124 H58         1.8240    6.6250   -3.3780 hc        1 MOL      0.067072
    125 H59         3.2830    6.0650   -2.5900 hc        1 MOL      0.067072
    126 N11        -0.5450    4.2800    0.4950 n         1 MOL     -0.572276
    127 C39        -1.7290    3.2960    0.5120 c3        1 MOL      0.061167
    128 C40        -2.3890    3.0100   -0.8950 c         1 MOL      0.366414
    129 O19        -2.1610    3.7830   -1.7980 o         1 MOL     -0.476199
    130 C41        -2.9080    3.8300    1.3690 c3        1 MOL      0.796152
    131 C42        -3.6060    5.0520    0.7440 c3        1 MOL     -0.441878
    132 O20        -2.4020    4.1760    2.5880 oh        1 MOL     -0.816914
    133 H60        -0.6850    5.2210    0.8640 hn        1 MOL      0.318101
    134 H61        -1.4310    2.3380    0.9320 h1        1 MOL      0.031990
    135 H62        -3.6710    3.0770    1.5550 h1        1 MOL     -0.137951
    136 H63        -3.0290    4.0570    3.3050 ho        1 MOL      0.412460
    137 H64        -2.9440    5.7390    0.2200 hc        1 MOL      0.101343
    138 H65        -4.4750    4.6580    0.2200 hc        1 MOL      0.101343
    139 H66        -4.1320    5.5960    1.5340 hc        1 MOL      0.101343
    140 N12        -3.3030    1.9850   -1.0630 n         1 MOL     -0.147614
    141 C43        -3.9330    1.7270   -2.3180 c3        1 MOL     -0.266660
    142 C44        -4.3060    0.2740   -2.6190 c         1 MOL      0.512916
    143 O21        -4.8660    0.0090   -3.6870 o         1 MOL     -0.560785
    144 C45        -5.0540    2.7260   -2.4700 c3        1 MOL     -0.043389
    145 C46        -6.3520    2.3890   -1.7370 c3        1 MOL     -0.030843
    146 C47        -7.3830    3.5430   -1.8650 c3        1 MOL     -0.153363
    147 C48        -8.7300    3.0490   -1.5560 c3        1 MOL      0.270880
    148 N13        -9.6640    4.1610   -1.7460 n4        1 MOL     -0.277706
    149 H67        -3.6940    1.4800   -0.2840 hn        1 MOL      0.096256
    150 H68        -3.3090    1.8740   -3.2000 h1        1 MOL      0.192615
    151 H69        -5.0990    2.9680   -3.5260 hc        1 MOL      0.037739
    152 H70        -4.7670    3.6500   -1.9620 hc        1 MOL      0.037739
    153 H71        -6.0100    2.3290   -0.6970 hc        1 MOL      0.078437
    154 H72        -6.7060    1.4060   -2.0360 hc        1 MOL      0.078437
    155 H73        -7.4100    3.8710   -2.9060 hc        1 MOL      0.027126
    156 H74        -7.1240    4.3430   -1.1700 hc        1 MOL      0.027126
    157 H75        -8.7750    2.6240   -0.5540 hx        1 MOL      0.024245
    158 H76        -8.9670    2.2450   -2.2520 hx        1 MOL      0.024245
    159 H77        -9.3750    5.0070   -1.2760 hn        1 MOL      0.285078
    160 H78        -9.6720    4.4230   -2.7280 hn        1 MOL      0.285078
    161 H79       -10.6370    4.0160   -1.5400 hn        1 MOL      0.285078
    162 N14        -3.9360   -0.7060   -1.7570 n         1 MOL     -0.018286
    163 C49        -4.1790   -2.1060   -1.8850 c3        1 MOL     -0.088037
    164 C50        -5.7210   -2.3990   -1.7310 c         1 MOL      0.365180
    165 O22        -6.3990   -1.8540   -0.8480 o         1 MOL     -0.466595
    166 C51        -3.2300   -2.7710   -0.7860 c3        1 MOL      0.181522
    167 C52        -3.4870   -4.2570   -0.5610 c3        1 MOL     -0.230035
    168 C53        -3.2690   -5.1180   -1.8320 c         1 MOL      0.681634
    169 O23        -2.0760   -5.2330   -2.2420 o         1 MOL     -0.733180
    170 O24        -4.1730   -5.6460   -2.4700 o         1 MOL     -0.733180
    171 H80        -3.3920   -0.3860   -0.9610 hn        1 MOL      0.047670
    172 H81        -3.9170   -2.4140   -2.9010 h1        1 MOL      0.003030
    173 H82        -3.5870   -2.3240    0.1480 hc        1 MOL     -0.027532
    174 H83        -2.1830   -2.5990   -1.0190 hc        1 MOL     -0.027532
    175 H84        -4.4860   -4.3720   -0.1380 hc        1 MOL      0.081271
    176 H85        -2.7750   -4.7650    0.0880 hc        1 MOL      0.081271
    177 N15        -6.2470   -3.3850   -2.4930 n         1 MOL     -0.292932
    178 C54        -7.6510   -3.6730   -2.5990 c3        1 MOL     -0.066895
    179 H86        -7.9640   -4.2690   -1.7410 h1        1 MOL      0.061387
    180 H87        -8.2130   -2.7400   -2.6170 h1        1 MOL      0.061387
    181 H88        -7.8400   -4.2300   -3.5170 h1        1 MOL      0.061387
    182 H89        -5.6090   -3.8970   -3.0920 hn        1 MOL      0.373695
    183 Ca1         0.4360   -4.8770   -2.6260 Ca        1 MOL      1.559361
    184 O25         2.3450   -4.5010   -4.8170 oh        1 MOL     -0.821305
    185 H90         2.0860   -4.7850   -5.6920 ho        1 MOL      0.411110
    186 H91         3.2970   -4.6050   -4.8050 ho        1 MOL      0.411110
    187 O26         0.1110   -6.4180   -4.8280 oh        1 MOL     -0.821305
    188 H92        -0.0420   -7.2180   -4.3340 ho        1 MOL      0.411110
    189 H93        -0.1060   -6.6330   -5.7290 ho        1 MOL      0.411110
    190 O27        -0.6980   -2.9050   -4.3780 oh        1 MOL     -0.821305
    191 H94        -1.5150   -2.7380   -4.8450 ho        1 MOL      0.411110
    192 H95        -0.6010   -2.1550   -3.7960 ho        1 MOL      0.411110
@<TRIPOS>BOND
     1    1    2 1   
     2    1    4 1   
     3    1    5 1   
     4    1    6 1   
     5    2    3 2   
     6    2    7 1   
     7    7    8 1   
     8    7   15 1   
     9    8    9 1   
    10    8   11 1   
    11    8   16 1   
    12    9   10 2   
    13    9   19 1   
    14   11   12 1   
    15   11   17 1   
    16   11   18 1   
    17   12   13 1   
    18   12   14 1   
    19   19   20 1   
    20   19   28 1   
    21   20   21 1   
    22   20   23 1   
    23   20   29 1   
    24   21   22 2   
    25   21   41 1   
    26   23   24 1   
    27   23   30 1   
    28   23   31 1   
    29   24   25 1   
    30   24   32 1   
    31   24   33 1   
    32   25   26 1   
    33   25   34 1   
    34   25   35 1   
    35   26   27 1   
    36   26   36 1   
    37   26   37 1   
    38   27   38 1   
    39   27   39 1   
    40   27   40 1   
    41   41   42 1   
    42   41   49 1   
    43   42   43 1   
    44   42   45 1   
    45   42   50 1   
    46   43   44 2   
    47   43   53 1   
    48   45   46 1   
    49   45   51 1   
    50   45   52 1   
    51   46   47 1   
    52   46   48 1   
    53   53   54 1   
    54   53   57 1   
    55   54   55 1   
    56   54   58 1   
    57   54   59 1   
    58   55   56 2   
    59   55   60 1   
    60   60   61 1   
    61   60   68 1   
    62   61   62 1   
    63   61   64 1   
    64   61   69 1   
    65   62   63 2   
    66   62   72 1   
    67   64   65 1   
    68   64   70 1   
    69   64   71 1   
    70   65   66 1   
    71   65   67 1   
    72   72   73 1   
    73   72   76 1   
    74   73   74 1   
    75   73   77 1   
    76   73   78 1   
    77   74   75 2   
    78   74   79 1   
    79   79   80 1   
    80   79   86 1   
    81   80   81 1   
    82   80   83 1   
    83   80   87 1   
    84   81   82 2   
    85   81   93 1   
    86   83   84 1   
    87   83   85 1   
    88   83   88 1   
    89   84   90 1   
    90   84   91 1   
    91   84   92 1   
    92   85   89 1   
    93   93   94 1   
    94   93  101 1   
    95   94   95 1   
    96   94   97 1   
    97   94  102 1   
    98   95   96 2   
    99   95  112 1   
   100   97   98 1   
   101   97   99 1   
   102   97  103 1   
   103   98  100 1   
   104   98  104 1   
   105   98  105 1   
   106   99  106 1   
   107   99  107 1   
   108   99  108 1   
   109  100  109 1   
   110  100  110 1   
   111  100  111 1   
   112  112  113 1   
   113  112  119 1   
   114  113  114 1   
   115  113  116 1   
   116  113  120 1   
   117  114  115 2   
   118  114  126 1   
   119  116  117 1   
   120  116  118 1   
   121  116  121 1   
   122  117  123 1   
   123  117  124 1   
   124  117  125 1   
   125  118  122 1   
   126  126  127 1   
   127  126  133 1   
   128  127  128 1   
   129  127  130 1   
   130  127  134 1   
   131  128  129 2   
   132  128  140 1   
   133  130  131 1   
   134  130  132 1   
   135  130  135 1   
   136  131  137 1   
   137  131  138 1   
   138  131  139 1   
   139  132  136 1   
   140  140  141 1   
   141  140  149 1   
   142  141  142 1   
   143  141  144 1   
   144  141  150 1   
   145  142  143 2   
   146  142  162 1   
   147  144  145 1   
   148  144  151 1   
   149  144  152 1   
   150  145  146 1   
   151  145  153 1   
   152  145  154 1   
   153  146  147 1   
   154  146  155 1   
   155  146  156 1   
   156  147  148 1   
   157  147  157 1   
   158  147  158 1   
   159  148  159 1   
   160  148  160 1   
   161  148  161 1   
   162  162  163 1   
   163  162  171 1   
   164  163  164 1   
   165  163  166 1   
   166  163  172 1   
   167  164  165 2   
   168  164  177 1   
   169  166  167 1   
   170  166  173 1   
   171  166  174 1   
   172  167  168 1   
   173  167  175 1   
   174  167  176 1   
   175  168  169 1   
   176  168  170 1   
   177  177  178 1   
   178  177  182 1   
   179  178  179 1   
   180  178  180 1   
   181  178  181 1   
   182  184  185 1   
   183  184  186 1   
   184  187  188 1   
   185  187  189 1   
   186  190  191 1   
   187  190  192 1   
@<TRIPOS>SUBSTRUCTURE
     1 MOL         1 TEMP              0 ****  ****    0 ROOT
