@<TRIPOS>MOLECULE
MOL
  175   173     1     0     0
SMALL
resp


@<TRIPOS>ATOM
      1 C1         -6.3250    7.7460    1.9300 c3        1 MOL     -0.350964
      2 C2         -7.1700    7.0830    0.8510 c         1 MOL      0.682869
      3 O1         -6.9960    7.4560   -0.3040 o         1 MOL     -0.578454
      4 H1         -5.3390    7.9790    1.5260 hc        1 MOL      0.081599
      5 H2         -6.8090    8.6660    2.2570 hc        1 MOL      0.081599
      6 H3         -6.2200    7.0690    2.7780 hc        1 MOL      0.081599
      7 N1         -8.1000    6.1840    1.1480 n         1 MOL     -0.496148
      8 C3         -8.8690    5.4040    0.1200 c3        1 MOL      0.119876
      9 C4         -7.9990    4.4660   -0.7480 c         1 MOL      0.532295
     10 O2         -8.2570    4.1720   -1.9370 o         1 MOL     -0.516819
     11 C5         -9.9790    4.6620    0.8620 c3        1 MOL     -0.159975
     12 C6        -11.0870    4.1300   -0.0880 c         1 MOL      0.659124
     13 O3        -12.0140    4.9300   -0.3790 o         1 MOL     -0.708104
     14 O4        -11.0170    2.9530   -0.5130 o         1 MOL     -0.708104
     15 H4         -8.2220    5.8860    2.1130 hn        1 MOL      0.272486
     16 H5         -9.3360    6.1520   -0.5160 h1        1 MOL      0.071175
     17 H6        -10.3970    5.3670    1.5900 hc        1 MOL      0.000431
     18 H7         -9.5670    3.8360    1.4400 hc        1 MOL      0.000431
     19 N2         -6.8370    4.0790   -0.1610 n         1 MOL     -0.641072
     20 C7         -5.7410    3.3820   -0.8550 c3        1 MOL      0.520505
     21 C8         -5.0260    2.4970    0.1880 c         1 MOL      0.316081
     22 O5         -4.7020    3.0030    1.2410 o         1 MOL     -0.520169
     23 C9         -4.7990    4.4140   -1.3460 c3        1 MOL     -0.450322
     24 H8         -6.6800    4.3640    0.7890 hn        1 MOL      0.285094
     25 H9         -6.1370    2.8260   -1.6970 h1        1 MOL     -0.007999
     26 H10        -4.3190    4.8300   -0.4680 hc        1 MOL      0.119937
     27 H11        -4.0980    3.8560   -1.9700 hc        1 MOL      0.119937
     28 H12        -5.3050    5.1790   -1.9340 hc        1 MOL      0.119937
     29 N3         -4.6390    1.2450   -0.0350 n         1 MOL     -0.184899
     30 C10        -5.0150    0.5000   -1.1790 c3        1 MOL     -0.116711
     31 C11        -5.3670   -0.9490   -0.6440 c         1 MOL      0.493062
     32 O6         -4.8050   -1.4350    0.3950 o         1 MOL     -0.548107
     33 C12        -3.9750    0.3680   -2.3150 c3        1 MOL     -0.063706
     34 C13        -2.6690   -0.1980   -1.8910 c         1 MOL      0.604048
     35 O7         -1.9270    0.4320   -1.0690 o         1 MOL     -0.691984
     36 O8         -2.4270   -1.3880   -2.1550 o         1 MOL     -0.691984
     37 H13        -4.2280    0.7270    0.7300 hn        1 MOL      0.258394
     38 H14        -5.9980    0.7940   -1.5540 h1        1 MOL      0.066267
     39 H15        -3.8380    1.3940   -2.6500 hc        1 MOL      0.012229
     40 H16        -4.4500   -0.2400   -3.0890 hc        1 MOL      0.012229
     41 N4         -6.3920   -1.5700   -1.1900 n         1 MOL     -0.417610
     42 C14        -7.0490   -2.7670   -0.6190 c3        1 MOL      0.008308
     43 C15        -6.8870   -4.0250   -1.5790 c         1 MOL      0.537365
     44 O9         -7.8690   -4.5920   -1.9910 o         1 MOL     -0.537876
     45 H17        -6.9240   -1.0040   -1.8360 hn        1 MOL      0.332377
     46 H18        -8.1110   -2.5160   -0.6040 h1        1 MOL      0.080541
     47 H19        -6.6640   -3.0220    0.3660 h1        1 MOL      0.080541
     48 N5         -5.6570   -4.5190   -1.8650 n         1 MOL     -0.499084
     49 C16        -4.3180   -4.3170   -1.2770 c3        1 MOL      0.019472
     50 C17        -4.2490   -5.0860   -0.0010 c         1 MOL      0.662214
     51 O10        -4.8840   -6.1180    0.1030 o         1 MOL     -0.575266
     52 C18        -3.3340   -4.8840   -2.2730 c3        1 MOL     -0.100563
     53 C19        -1.9260   -4.6320   -1.8530 c         1 MOL      0.539554
     54 N6         -0.9260   -5.1040   -2.6130 n         1 MOL     -0.711360
     55 O11        -1.6130   -4.0150   -0.8470 o         1 MOL     -0.486076
     56 H20        -5.7410   -5.2200   -2.5900 hn        1 MOL      0.300049
     57 H21        -4.0910   -3.2520   -1.1870 h1        1 MOL      0.105670
     58 H22        -3.6100   -4.3940   -3.2110 hc        1 MOL      0.046848
     59 H23        -3.4310   -5.9480   -2.4990 hc        1 MOL      0.046848
     60 H24        -1.1580   -5.6080   -3.4610 hn        1 MOL      0.340386
     61 H25        -0.0380   -5.1880   -2.1400 hn        1 MOL      0.340386
     62 N7         -3.7040   -4.5140    1.0960 n         1 MOL     -0.366771
     63 C20        -3.5670   -5.1340    2.4200 c3        1 MOL     -0.035884
     64 C21        -2.1320   -5.3100    2.8900 c         1 MOL      0.460284
     65 O12        -1.9350   -5.8950    3.9810 o         1 MOL     -0.577674
     66 H26        -3.4060   -3.5600    0.9840 hn        1 MOL      0.228153
     67 H27        -4.1040   -6.0720    2.5410 h1        1 MOL      0.080512
     68 H28        -4.0580   -4.5460    3.1990 h1        1 MOL      0.080512
     69 N8         -1.1420   -4.8320    2.1130 n         1 MOL     -0.165667
     70 C22         0.3410   -4.9350    2.3380 c3        1 MOL     -0.050469
     71 C23         1.0940   -3.6320    2.0720 c         1 MOL      0.327375
     72 O13         0.5930   -2.7230    1.4360 o         1 MOL     -0.478079
     73 C24         0.9920   -6.0040    1.4180 c3        1 MOL      0.334500
     74 C25         0.6140   -7.4470    1.8020 c3        1 MOL     -0.365725
     75 O14         0.5740   -5.9050    0.0190 oh        1 MOL     -0.642958
     76 H29        -1.4160   -4.4990    1.2060 hn        1 MOL      0.115137
     77 H30         0.5360   -5.2350    3.3720 h1        1 MOL      0.068945
     78 H31         2.0710   -5.8510    1.4600 h1        1 MOL      0.025093
     79 H32         0.8800   -5.1030   -0.4050 ho        1 MOL      0.444658
     80 H33        -0.3960   -7.7640    1.5580 hc        1 MOL      0.092389
     81 H34         1.3420   -8.1410    1.3870 hc        1 MOL      0.092389
     82 H35         0.8730   -7.6270    2.8470 hc        1 MOL      0.092389
     83 N9          2.3750   -3.5380    2.5640 n         1 MOL     -0.204372
     84 C26         3.3100   -2.4040    2.3080 c3        1 MOL      0.031734
     85 C27         4.0740   -2.7500    1.0400 c         1 MOL      0.214109
     86 O15         4.8850   -3.7020    1.0070 o         1 MOL     -0.593317
     87 C28         4.1200   -1.9080    3.5690 c3        1 MOL      0.227902
     88 C29         4.7830   -0.5810    3.2120 c3        1 MOL      0.098728
     89 C30         3.0960   -1.7250    4.7010 c3        1 MOL     -0.425110
     90 C31         5.9610   -0.1360    4.1170 c3        1 MOL     -0.377702
     91 H36         2.7150   -4.2900    3.1330 hn        1 MOL      0.222468
     92 H37         2.7320   -1.5260    2.0180 h1        1 MOL     -0.000564
     93 H38         4.8700   -2.6720    3.8010 hc        1 MOL     -0.025272
     94 H39         4.0110    0.1820    3.3060 hc        1 MOL      0.038084
     95 H40         5.0730   -0.6580    2.1650 hc        1 MOL      0.038084
     96 H41         3.5160   -1.1970    5.5460 hc        1 MOL      0.095863
     97 H42         2.2480   -1.0950    4.4060 hc        1 MOL      0.095863
     98 H43         2.7320   -2.6990    5.0200 hc        1 MOL      0.095863
     99 H44         6.8210   -0.7590    3.8860 hc        1 MOL      0.083519
    100 H45         6.2030    0.8990    3.8830 hc        1 MOL      0.083519
    101 H46         5.6640   -0.2150    5.1600 hc        1 MOL      0.083519
    102 N10         3.9120   -2.1440   -0.1070 n         1 MOL      0.084271
    103 C32         4.3880   -2.4450   -1.4870 c3        1 MOL      0.245877
    104 C33         5.3710   -1.2920   -1.9980 c         1 MOL      0.448454
    105 O16         5.4680   -1.0800   -3.2030 o         1 MOL     -0.542964
    106 C34         3.2220   -2.7750   -2.3880 c3        1 MOL     -0.324168
    107 C35         2.3340   -3.8840   -1.8950 c         1 MOL      0.659892
    108 O17         2.5570   -5.0740   -2.1020 o         1 MOL     -0.648930
    109 O18         1.3100   -3.5930   -1.2050 o         1 MOL     -0.648930
    110 H47         3.3030   -1.3430   -0.0380 hn        1 MOL      0.030759
    111 H48         5.0590   -3.3020   -1.4590 h1        1 MOL      0.025853
    112 H49         3.6740   -3.0940   -3.3310 hc        1 MOL      0.070605
    113 H50         2.6230   -1.9050   -2.6090 hc        1 MOL      0.070605
    114 N11         5.9370   -0.4670   -1.1160 n         1 MOL     -0.576191
    115 C36         6.7830    0.6580   -1.5190 c3        1 MOL      0.619025
    116 C37         6.4680    1.9020   -0.6650 c         1 MOL      0.266465
    117 O19         6.1510    1.7810    0.5190 o         1 MOL     -0.542623
    118 C38         8.2310    0.2630   -1.3470 c3        1 MOL     -0.424618
    119 C39         9.1930    1.3750   -1.4800 ca        1 MOL      0.127956
    120 C40         9.5940    2.2000   -0.3540 ca        1 MOL     -0.179071
    121 C41         9.6500    1.7340   -2.7480 ca        1 MOL     -0.179071
    122 C42        10.4590    3.2890   -0.6040 ca        1 MOL     -0.090315
    123 C43        10.6060    2.7460   -2.9170 ca        1 MOL     -0.090315
    124 C44        11.0000    3.5020   -1.8660 ca        1 MOL     -0.120253
    125 H51         5.8060   -0.7670   -0.1540 hn        1 MOL      0.215315
    126 H52         6.5400    0.9240   -2.5530 h1        1 MOL     -0.072597
    127 H53         8.3820   -0.6400   -1.9490 hc        1 MOL      0.135023
    128 H54         8.3910   -0.0280   -0.3060 hc        1 MOL      0.135023
    129 H55         9.3140    1.9840    0.6670 ha        1 MOL      0.124435
    130 H56         9.3520    1.1000   -3.5610 ha        1 MOL      0.124435
    131 H57        10.7120    3.9780    0.1940 ha        1 MOL      0.100090
    132 H58        11.0960    2.7940   -3.8850 ha        1 MOL      0.100090
    133 H59        11.7370    4.2780   -2.0030 ha        1 MOL      0.098629
    134 N12         6.3860    3.0910   -1.2500 n         1 MOL      0.084350
    135 C45         6.2950    4.3770   -0.5180 c3        1 MOL     -0.174820
    136 C46         5.0250    4.7390    0.2110 c         1 MOL      0.518379
    137 O20         4.9580    5.7880    0.7490 o         1 MOL     -0.542901
    138 C47         6.7360    5.4470   -1.5410 c3        1 MOL      0.151809
    139 C48         6.5740    4.8820   -2.9670 c3        1 MOL     -0.122213
    140 C49         6.5140    3.3410   -2.6660 c3        1 MOL     -0.102936
    141 H60         7.0590    4.4290    0.2410 h1        1 MOL      0.105339
    142 H61         6.2990    6.4360   -1.4680 hc        1 MOL     -0.013401
    143 H62         7.7920    5.5770   -1.3190 hc        1 MOL     -0.013401
    144 H63         5.6320    5.2940   -3.3280 hc        1 MOL      0.050328
    145 H64         7.4020    5.2050   -3.5980 hc        1 MOL      0.050328
    146 H65         5.6300    2.9950   -3.1830 h1        1 MOL      0.063255
    147 H66         7.4260    2.8590   -3.0250 h1        1 MOL      0.063255
    148 N13         4.0300    3.8170    0.4250 n         1 MOL     -0.232536
    149 C50         2.7770    4.0300    1.1680 c3        1 MOL     -0.270032
    150 C51         2.8500    4.3850    2.6030 c         1 MOL      0.533987
    151 O21         1.9070    4.9450    3.1830 o         1 MOL     -0.544266
    152 C52         1.8230    2.8650    1.0120 c3        1 MOL      0.014387
    153 C53         2.4050    1.4700    1.3290 c3        1 MOL      0.183477
    154 C54         1.5830    0.3790    0.6330 c         1 MOL      0.555930
    155 O22         2.0120   -0.2590   -0.3520 o         1 MOL     -0.669218
    156 O23         0.3570    0.2870    0.9160 o         1 MOL     -0.669218
    157 H67         4.2000    2.9950   -0.1420 hn        1 MOL      0.168868
    158 H68         2.3540    4.8790    0.6470 h1        1 MOL      0.155491
    159 H69         1.5800    2.8260   -0.0490 hc        1 MOL      0.043095
    160 H70         0.8560    2.9830    1.5080 hc        1 MOL      0.043095
    161 H71         2.4710    1.3650    2.4090 hc        1 MOL     -0.065033
    162 H72         3.4310    1.4000    0.9850 hc        1 MOL     -0.065033
    163 N14         3.9790    4.1070    3.2750 n         1 MOL     -0.164095
    164 C55         4.2330    4.6580    4.6510 c3        1 MOL     -0.174896
    165 H73         5.1740    5.2090    4.6530 h1        1 MOL      0.083169
    166 H74         3.4200    5.3280    4.9310 h1        1 MOL      0.083169
    167 H75         4.2930    3.8370    5.3660 h1        1 MOL      0.083169
    168 H76         4.6500    3.5360    2.7840 hn        1 MOL      0.186306
    169 Ca1        -0.2960   -1.6530   -0.6550 Ca        1 MOL      1.713227
    170 O24         0.2290   -1.5150   -3.3610 oh        1 MOL     -0.876515
    171 H77        -0.3280   -2.0010   -3.9720 ho        1 MOL      0.417356
    172 H78         0.9420   -1.1900   -3.9040 ho        1 MOL      0.417356
    173 O25        -2.2910   -1.6220    1.1430 oh        1 MOL     -0.876515
    174 H79        -3.2390   -1.5940    1.0380 ho        1 MOL      0.417356
    175 H80        -2.1020   -0.9320    1.7780 ho        1 MOL      0.417356
@<TRIPOS>BOND
     1    1    2 1   
     2    1    4 1   
     3    1    5 1   
     4    1    6 1   
     5    2    3 2   
     6    2    7 1   
     7    7    8 1   
     8    7   15 1   
     9    8    9 1   
    10    8   11 1   
    11    8   16 1   
    12    9   10 2   
    13    9   19 1   
    14   11   12 1   
    15   11   17 1   
    16   11   18 1   
    17   12   13 1   
    18   12   14 1   
    19   19   20 1   
    20   19   24 1   
    21   20   21 1   
    22   20   23 1   
    23   20   25 1   
    24   21   22 2   
    25   21   29 1   
    26   23   26 1   
    27   23   27 1   
    28   23   28 1   
    29   29   30 1   
    30   29   37 1   
    31   30   31 1   
    32   30   33 1   
    33   30   38 1   
    34   31   32 2   
    35   31   41 1   
    36   33   34 1   
    37   33   39 1   
    38   33   40 1   
    39   34   35 1   
    40   34   36 1   
    41   41   42 1   
    42   41   45 1   
    43   42   43 1   
    44   42   46 1   
    45   42   47 1   
    46   43   44 2   
    47   43   48 1   
    48   48   49 1   
    49   48   56 1   
    50   49   50 1   
    51   49   52 1   
    52   49   57 1   
    53   50   51 2   
    54   50   62 1   
    55   52   53 1   
    56   52   58 1   
    57   52   59 1   
    58   53   54 1   
    59   53   55 2   
    60   54   60 1   
    61   54   61 1   
    62   62   63 1   
    63   62   66 1   
    64   63   64 1   
    65   63   67 1   
    66   63   68 1   
    67   64   65 2   
    68   64   69 1   
    69   69   70 1   
    70   69   76 1   
    71   70   71 1   
    72   70   73 1   
    73   70   77 1   
    74   71   72 2   
    75   71   83 1   
    76   73   74 1   
    77   73   75 1   
    78   73   78 1   
    79   74   80 1   
    80   74   81 1   
    81   74   82 1   
    82   75   79 1   
    83   83   84 1   
    84   83   91 1   
    85   84   85 1   
    86   84   87 1   
    87   84   92 1   
    88   85   86 2   
    89   85  102 1   
    90   87   88 1   
    91   87   89 1   
    92   87   93 1   
    93   88   90 1   
    94   88   94 1   
    95   88   95 1   
    96   89   96 1   
    97   89   97 1   
    98   89   98 1   
    99   90   99 1   
   100   90  100 1   
   101   90  101 1   
   102  102  103 1   
   103  102  110 1   
   104  103  104 1   
   105  103  106 1   
   106  103  111 1   
   107  104  105 2   
   108  104  114 1   
   109  106  107 1   
   110  106  112 1   
   111  106  113 1   
   112  107  108 1   
   113  107  109 1   
   114  114  115 1   
   115  114  125 1   
   116  115  116 1   
   117  115  118 1   
   118  115  126 1   
   119  116  117 2   
   120  116  134 1   
   121  118  119 1   
   122  118  127 1   
   123  118  128 1   
   124  119  120 ar  
   125  119  121 ar  
   126  120  122 ar  
   127  120  129 1   
   128  121  123 ar  
   129  121  130 1   
   130  122  124 ar  
   131  122  131 1   
   132  123  124 ar  
   133  123  132 1   
   134  124  133 1   
   135  134  135 1   
   136  134  140 1   
   137  135  136 1   
   138  135  138 1   
   139  135  141 1   
   140  136  137 2   
   141  136  148 1   
   142  138  139 1   
   143  138  142 1   
   144  138  143 1   
   145  139  140 1   
   146  139  144 1   
   147  139  145 1   
   148  140  146 1   
   149  140  147 1   
   150  148  149 1   
   151  148  157 1   
   152  149  150 1   
   153  149  152 1   
   154  149  158 1   
   155  150  151 2   
   156  150  163 1   
   157  152  153 1   
   158  152  159 1   
   159  152  160 1   
   160  153  154 1   
   161  153  161 1   
   162  153  162 1   
   163  154  155 1   
   164  154  156 1   
   165  163  164 1   
   166  163  168 1   
   167  164  165 1   
   168  164  166 1   
   169  164  167 1   
   170  170  171 1   
   171  170  172 1   
   172  173  174 1   
   173  173  175 1   
@<TRIPOS>SUBSTRUCTURE
     1 MOL         1 TEMP              0 ****  ****    0 ROOT
