@<TRIPOS>MOLECULE
MOL
  192   187     1     0     0
SMALL
resp


@<TRIPOS>ATOM
      1 C1          3.0960   -5.4470    2.3480 c3        1 MOL     -0.069108
      2 C2          3.8070   -4.5010    1.3500 c         1 MOL      0.667256
      3 O1          4.5640   -3.6390    1.7950 o         1 MOL     -0.594423
      4 H1          3.7200   -6.3230    2.5260 hc        1 MOL     -0.001300
      5 H2          2.9300   -4.9250    3.2900 hc        1 MOL     -0.001300
      6 H3          2.1390   -5.7620    1.9330 hc        1 MOL     -0.001300
      7 N1          3.6030   -4.6810    0.0560 n         1 MOL     -0.509536
      8 C3          4.3910   -4.4410   -1.1680 c3        1 MOL      0.184032
      9 C4          5.9470   -4.6470   -1.0750 c         1 MOL      0.316068
     10 O2          6.5540   -5.1740   -2.0150 o         1 MOL     -0.507729
     11 C5          3.9810   -3.0550   -1.7570 c3        1 MOL     -0.621364
     12 C6          2.4670   -2.6460   -1.5790 c         1 MOL      0.842981
     13 O3          1.6420   -3.1800   -2.3880 o         1 MOL     -0.686691
     14 O4          2.1460   -1.7600   -0.7860 o         1 MOL     -0.686691
     15 H4          2.9120   -5.4050   -0.0850 hn        1 MOL      0.234854
     16 H5          4.0470   -5.1910   -1.8940 h1        1 MOL      0.054693
     17 H6          4.1840   -2.8890   -2.8210 hc        1 MOL      0.190830
     18 H7          4.5990   -2.2870   -1.2840 hc        1 MOL      0.190830
     19 N2          6.6340   -4.2210   -0.0540 n         1 MOL     -0.098547
     20 C7          8.0960   -4.2390    0.2270 c3        1 MOL      0.009896
     21 C8          8.9370   -3.6580   -0.9410 c         1 MOL      0.544706
     22 O5          9.6420   -4.4430   -1.6120 o         1 MOL     -0.574787
     23 C9          8.5240   -5.6480    0.8140 c3        1 MOL      0.017345
     24 C10         7.5530   -6.1410    1.8970 c3        1 MOL      0.169577
     25 C11        10.0140   -5.5990    1.2410 c3        1 MOL     -0.107163
     26 C12         7.9430   -7.4810    2.5550 c3        1 MOL     -0.172276
     27 H8          6.1340   -3.8350    0.7450 hn        1 MOL      0.220645
     28 H9          8.2150   -3.5010    1.0160 h1        1 MOL      0.082913
     29 H10         8.4240   -6.3980    0.0290 hc        1 MOL      0.015099
     30 H11         6.5490   -6.2580    1.4920 hc        1 MOL     -0.047581
     31 H12         7.4670   -5.3450    2.6410 hc        1 MOL     -0.047581
     32 H13        10.2080   -4.7460    1.8880 hc        1 MOL      0.016253
     33 H14        10.3840   -6.4900    1.7480 hc        1 MOL      0.016253
     34 H15        10.6520   -5.3930    0.3840 hc        1 MOL      0.016253
     35 H16         8.6890   -7.3500    3.3390 hc        1 MOL      0.028075
     36 H17         7.0730   -7.9320    3.0250 hc        1 MOL      0.028075
     37 H18         8.3070   -8.2590    1.8740 hc        1 MOL      0.028075
     38 N3          8.8110   -2.4010   -1.3650 n         1 MOL     -0.409627
     39 C13         8.0420   -1.3610   -0.6440 c3        1 MOL     -0.024290
     40 C14         7.3770   -0.5040   -1.7790 c         1 MOL      0.579440
     41 O6          7.9520   -0.1690   -2.8070 o         1 MOL     -0.526005
     42 C15         9.0630   -0.5130    0.1490 c3        1 MOL     -0.260620
     43 C16         8.4200    0.7080    0.8440 c         1 MOL      0.708165
     44 O7          9.0420    1.7680    1.0500 o         1 MOL     -0.689485
     45 O8          7.2410    0.5900    1.3750 o         1 MOL     -0.689485
     46 H19         9.4150   -2.0150   -2.0720 hn        1 MOL      0.285316
     47 H20         7.1930   -1.7540   -0.0880 h1        1 MOL     -0.013201
     48 H21         9.7750   -0.1790   -0.5910 hc        1 MOL      0.060555
     49 H22         9.6480   -1.1060    0.8450 hc        1 MOL      0.060555
     50 N4          6.1080   -0.1840   -1.6080 n         1 MOL     -0.350993
     51 C17         5.2890    0.2720   -2.6860 c3        1 MOL     -0.023892
     52 C18         5.2440    1.8300   -2.8500 c         1 MOL      0.455564
     53 O9          6.2110    2.6000   -2.7500 o         1 MOL     -0.485615
     54 H23         5.6240   -0.3350   -0.7340 hn        1 MOL      0.255423
     55 H24         4.2880   -0.1530   -2.7760 h1        1 MOL      0.063012
     56 H25         5.7280   -0.0900   -3.6200 h1        1 MOL      0.063012
     57 N5          3.9910    2.4090   -3.0400 n         1 MOL     -0.372302
     58 C19         3.6980    3.8650   -3.2280 c3        1 MOL     -0.053579
     59 C20         3.9920    4.8060   -1.9760 c         1 MOL      0.474194
     60 O10         4.2620    6.0100   -2.1630 o         1 MOL     -0.565265
     61 C21         2.2830    4.0230   -3.6180 c3        1 MOL      0.003387
     62 C22         1.3410    3.4270   -2.6790 c         1 MOL      0.637981
     63 O11         0.9940    4.1090   -1.6800 o         1 MOL     -0.658840
     64 O12         1.0750    2.2290   -2.7890 o         1 MOL     -0.658840
     65 H26         3.1770    1.8080   -3.1300 hn        1 MOL      0.222773
     66 H27         4.3250    4.1990   -4.0540 h1        1 MOL      0.088752
     67 H28         2.0730    3.5700   -4.5890 hc        1 MOL     -0.018319
     68 H29         2.0980    5.0900   -3.7370 hc        1 MOL     -0.018319
     69 N6          3.9060    4.3190   -0.7280 n         1 MOL     -0.174251
     70 C23         4.1810    5.0200    0.5300 c3        1 MOL     -0.202327
     71 C24         3.0010    5.8220    1.0900 c         1 MOL      0.505989
     72 O13         3.1610    6.3830    2.2140 o         1 MOL     -0.590091
     73 H30         3.7610    3.3160   -0.7320 hn        1 MOL      0.243130
     74 H31         5.0850    5.6180    0.4130 h1        1 MOL      0.127174
     75 H32         4.4100    4.2350    1.2520 h1        1 MOL      0.127174
     76 N7          1.8050    5.6780    0.4590 n         1 MOL     -0.205866
     77 C25         0.5470    6.2900    0.8700 c3        1 MOL      0.070665
     78 C26        -0.1080    5.9130    2.2270 c         1 MOL      0.303436
     79 O14        -0.9250    6.6140    2.8080 o         1 MOL     -0.518943
     80 C27         0.5190    7.7830    0.6430 c3        1 MOL      0.290579
     81 C28         0.8370    8.3210   -0.7650 c3        1 MOL     -0.331611
     82 C29         0.8690    9.8600   -0.9000 c         1 MOL      0.668897
     83 N8          2.1220   10.3270   -1.1880 n         1 MOL     -0.807085
     84 O15        -0.0540   10.6120   -0.7710 o         1 MOL     -0.559882
     85 H33         1.8110    5.2000   -0.4360 hn        1 MOL      0.066802
     86 H34        -0.2330    5.8200    0.2620 h1        1 MOL      0.099450
     87 H35         1.1020    8.3690    1.3560 hc        1 MOL     -0.043917
     88 H36        -0.5310    8.0680    0.7990 hc        1 MOL     -0.043917
     89 H37        -0.0700    7.9780   -1.2490 hc        1 MOL      0.081237
     90 H38         1.7650    7.9700   -1.2170 hc        1 MOL      0.081237
     91 H39         2.8360    9.6460   -1.4500 hn        1 MOL      0.354278
     92 H40         2.2840   11.3200   -1.1160 hn        1 MOL      0.354278
     93 N9          0.2410    4.7290    2.7370 n         1 MOL     -0.095599
     94 C30        -0.0950    4.3120    4.0930 c3        1 MOL     -0.175201
     95 C31        -1.2130    3.2190    4.1290 c         1 MOL      0.512013
     96 O16        -1.7610    2.8730    5.1930 o         1 MOL     -0.594032
     97 C32         1.1620    3.8800    4.8560 c3        1 MOL      0.291095
     98 C33         2.2170    3.0470    4.1350 c3        1 MOL     -0.426339
     99 C34         1.9030    5.1180    5.3750 c3        1 MOL     -0.426339
    100 H41         0.9180    4.1960    2.2130 hn        1 MOL      0.171320
    101 H42        -0.5660    5.1680    4.5980 h1        1 MOL      0.141146
    102 H43         0.8740    3.2570    5.7020 hc        1 MOL     -0.036577
    103 H44         2.9980    3.6760    3.6980 hc        1 MOL      0.112417
    104 H45         2.7560    2.3420    4.7730 hc        1 MOL      0.112417
    105 H46         1.6750    2.4570    3.3920 hc        1 MOL      0.112417
    106 H47         2.9020    4.8640    5.7130 hc        1 MOL      0.112417
    107 H48         2.0440    5.8180    4.5630 hc        1 MOL      0.112417
    108 H49         1.3280    5.5790    6.1890 hc        1 MOL      0.112417
    109 N10        -1.6580    2.7310    2.9860 n         1 MOL     -0.251107
    110 C35        -2.5140    1.5710    2.8920 c3        1 MOL      0.087391
    111 C36        -3.3280    1.5510    1.5940 c         1 MOL      0.467363
    112 O17        -3.1310    2.4290    0.7240 o         1 MOL     -0.511443
    113 C37        -1.5280    0.3460    3.0070 c3        1 MOL     -0.559377
    114 C38        -2.2740   -0.9560    3.1210 c         1 MOL      0.737347
    115 N11        -2.9260   -1.1770    4.2470 n         1 MOL     -0.793641
    116 O18        -2.1640   -1.7750    2.2480 o         1 MOL     -0.475695
    117 H50        -1.2940    3.0120    2.0870 hn        1 MOL      0.174826
    118 H51        -3.2470    1.5460    3.6960 h1        1 MOL      0.079562
    119 H52        -0.8510    0.3980    3.8590 hc        1 MOL      0.198324
    120 H53        -0.8640    0.3570    2.1420 hc        1 MOL      0.198324
    121 H54        -2.9910   -0.3510    4.8340 hn        1 MOL      0.364746
    122 H55        -3.3840   -2.0240    4.5320 hn        1 MOL      0.364746
    123 N12        -4.2070    0.6570    1.3360 n         1 MOL     -0.412222
    124 C39        -4.9650    0.4650    0.0760 c3        1 MOL      0.133984
    125 C40        -6.2750   -0.2670    0.2830 c         1 MOL      0.688893
    126 O19        -6.5750   -1.0200    1.1830 o         1 MOL     -0.632204
    127 C41        -4.0880   -0.1740   -1.0300 c3        1 MOL     -0.350585
    128 C42        -4.3460    0.1350   -2.5210 ca        1 MOL      0.070971
    129 C43        -4.0580    1.4180   -2.9770 ca        1 MOL     -0.091385
    130 C44        -4.7750   -0.8940   -3.3780 ca        1 MOL     -0.091385
    131 C45        -4.2380    1.6540   -4.3150 ca        1 MOL     -0.313870
    132 C46        -4.7190   -0.7290   -4.7400 ca        1 MOL     -0.313870
    133 C47        -4.4740    0.5980   -5.2640 ca        1 MOL      0.345601
    134 O20        -4.2090    0.7790   -6.5530 oh        1 MOL     -0.453670
    135 H56        -4.3800    0.0450    2.1180 hn        1 MOL      0.211019
    136 H57        -5.1550    1.4970   -0.2110 h1        1 MOL      0.080953
    137 H58        -3.9130   -1.2430   -0.9210 hc        1 MOL      0.166695
    138 H59        -3.0850    0.2070   -0.8200 hc        1 MOL      0.166695
    139 H60        -3.6430    2.2200   -2.3930 ha        1 MOL      0.151616
    140 H61        -5.1940   -1.8140   -2.9840 ha        1 MOL      0.151616
    141 H62        -3.9760    2.6430   -4.6730 ha        1 MOL      0.149644
    142 H63        -4.9400   -1.5450   -5.4100 ha        1 MOL      0.149644
    143 H64        -4.5570    0.0770   -7.1060 ho        1 MOL      0.342434
    144 N13        -7.0920   -0.1450   -0.7150 n         1 MOL     -0.652837
    145 C48        -8.3300   -0.8920   -1.0080 c3        1 MOL      0.091217
    146 C49        -8.3690   -1.8610   -2.1500 c         1 MOL      0.678490
    147 O21        -8.8250   -1.5240   -3.2330 o         1 MOL     -0.570219
    148 C50        -9.5130    0.0700   -0.9870 c3        1 MOL      0.152059
    149 C51        -9.7170    0.9210    0.2430 c3        1 MOL     -0.063582
    150 C52       -10.8940    1.8250    0.0300 c         1 MOL      0.633484
    151 O22       -11.9800    1.4880    0.5940 o         1 MOL     -0.715206
    152 O23       -10.6850    2.8750   -0.6020 o         1 MOL     -0.715206
    153 H65        -6.7520    0.4420   -1.4630 hn        1 MOL      0.318606
    154 H66        -8.5680   -1.5120   -0.1410 h1        1 MOL      0.070796
    155 H67       -10.4640   -0.4390   -1.2170 hc        1 MOL     -0.029956
    156 H68        -9.3300    0.8240   -1.7530 hc        1 MOL     -0.029956
    157 H69        -8.8000    1.4800    0.4230 hc        1 MOL     -0.014630
    158 H70        -9.9860    0.2870    1.0930 hc        1 MOL     -0.014630
    159 N14        -7.7900   -3.1230   -1.9680 n         1 MOL     -0.831530
    160 C53        -7.3850   -3.7730   -0.7290 c3        1 MOL      0.301824
    161 C54        -8.6100   -4.0560    0.3100 c         1 MOL      0.392843
    162 O24        -9.7760   -4.2150   -0.1370 o         1 MOL     -0.511026
    163 C55        -6.7550   -5.0980   -1.1040 c3        1 MOL     -0.308205
    164 C56        -5.7790   -5.5970   -0.0190 c3        1 MOL     -0.019501
    165 C57        -4.6800   -4.6310    0.3560 c         1 MOL      0.426452
    166 O25        -3.8410   -4.4460   -0.5430 o         1 MOL     -0.702546
    167 O26        -4.5450   -4.1220    1.5070 o         1 MOL     -0.702546
    168 H71        -7.7890   -3.6450   -2.8370 hn        1 MOL      0.352258
    169 H72        -6.6810   -3.0710   -0.2730 h1        1 MOL      0.161530
    170 H73        -6.1740   -5.1500   -2.0240 hc        1 MOL      0.116718
    171 H74        -7.6390   -5.7160   -1.2330 hc        1 MOL      0.116718
    172 H75        -5.3970   -6.5710   -0.3280 hc        1 MOL     -0.000522
    173 H76        -6.3990   -5.6630    0.8860 hc        1 MOL     -0.000522
    174 N15        -8.2810   -3.9550    1.5910 n         1 MOL     -0.199744
    175 C58        -9.1250   -4.1840    2.7370 c3        1 MOL     -0.330455
    176 H77        -8.8200   -5.1060    3.2320 h1        1 MOL      0.123682
    177 H78        -9.0310   -3.3500    3.4320 h1        1 MOL      0.123682
    178 H79       -10.1620   -4.2720    2.4120 h1        1 MOL      0.123682
    179 H80        -7.3050   -3.8000    1.7820 hn        1 MOL      0.279564
    180 Ca1        -1.6550   -4.0640    0.9910 Ca        1 MOL      1.789340
    181 O27        -1.5330   -2.1660   -0.7080 oh        1 MOL     -0.980522
    182 H81        -1.8730   -2.3040   -1.5980 ho        1 MOL      0.453852
    183 H82        -1.0570   -1.3450   -0.7510 ho        1 MOL      0.453852
    184 O28        -0.1720   -4.6910   -1.2460 oh        1 MOL     -0.980522
    185 H83        -0.1320   -5.4570   -1.8220 ho        1 MOL      0.453852
    186 H84         0.5090   -4.1070   -1.5640 ho        1 MOL      0.453852
    187 O29        -1.5130   -4.2680    3.8470 oh        1 MOL     -0.980522
    188 H85        -2.2760   -4.1670    4.4190 ho        1 MOL      0.453852
    189 H86        -0.7810   -4.4320    4.4450 ho        1 MOL      0.453852
    190 O30         0.6570   -2.8080    1.2320 oh        1 MOL     -0.980522
    191 H87         1.4130   -2.8120    1.8080 ho        1 MOL      0.453852
    192 H88         0.9660   -2.4060    0.4280 ho        1 MOL      0.453852
@<TRIPOS>BOND
     1    1    2 1   
     2    1    4 1   
     3    1    5 1   
     4    1    6 1   
     5    2    3 2   
     6    2    7 1   
     7    7    8 1   
     8    7   15 1   
     9    8    9 1   
    10    8   11 1   
    11    8   16 1   
    12    9   10 2   
    13    9   19 1   
    14   11   12 1   
    15   11   17 1   
    16   11   18 1   
    17   12   13 1   
    18   12   14 1   
    19   19   20 1   
    20   19   27 1   
    21   20   21 1   
    22   20   23 1   
    23   20   28 1   
    24   21   22 2   
    25   21   38 1   
    26   23   24 1   
    27   23   25 1   
    28   23   29 1   
    29   24   26 1   
    30   24   30 1   
    31   24   31 1   
    32   25   32 1   
    33   25   33 1   
    34   25   34 1   
    35   26   35 1   
    36   26   36 1   
    37   26   37 1   
    38   38   39 1   
    39   38   46 1   
    40   39   40 1   
    41   39   42 1   
    42   39   47 1   
    43   40   41 2   
    44   40   50 1   
    45   42   43 1   
    46   42   48 1   
    47   42   49 1   
    48   43   44 1   
    49   43   45 1   
    50   50   51 1   
    51   50   54 1   
    52   51   52 1   
    53   51   55 1   
    54   51   56 1   
    55   52   53 2   
    56   52   57 1   
    57   57   58 1   
    58   57   65 1   
    59   58   59 1   
    60   58   61 1   
    61   58   66 1   
    62   59   60 2   
    63   59   69 1   
    64   61   62 1   
    65   61   67 1   
    66   61   68 1   
    67   62   63 1   
    68   62   64 1   
    69   69   70 1   
    70   69   73 1   
    71   70   71 1   
    72   70   74 1   
    73   70   75 1   
    74   71   72 2   
    75   71   76 1   
    76   76   77 1   
    77   76   85 1   
    78   77   78 1   
    79   77   80 1   
    80   77   86 1   
    81   78   79 2   
    82   78   93 1   
    83   80   81 1   
    84   80   87 1   
    85   80   88 1   
    86   81   82 1   
    87   81   89 1   
    88   81   90 1   
    89   82   83 1   
    90   82   84 2   
    91   83   91 1   
    92   83   92 1   
    93   93   94 1   
    94   93  100 1   
    95   94   95 1   
    96   94   97 1   
    97   94  101 1   
    98   95   96 2   
    99   95  109 1   
   100   97   98 1   
   101   97   99 1   
   102   97  102 1   
   103   98  103 1   
   104   98  104 1   
   105   98  105 1   
   106   99  106 1   
   107   99  107 1   
   108   99  108 1   
   109  109  110 1   
   110  109  117 1   
   111  110  111 1   
   112  110  113 1   
   113  110  118 1   
   114  111  112 2   
   115  111  123 1   
   116  113  114 1   
   117  113  119 1   
   118  113  120 1   
   119  114  115 1   
   120  114  116 2   
   121  115  121 1   
   122  115  122 1   
   123  123  124 1   
   124  123  135 1   
   125  124  125 1   
   126  124  127 1   
   127  124  136 1   
   128  125  126 2   
   129  125  144 1   
   130  127  128 1   
   131  127  137 1   
   132  127  138 1   
   133  128  129 ar  
   134  128  130 ar  
   135  129  131 ar  
   136  129  139 1   
   137  130  132 ar  
   138  130  140 1   
   139  131  133 ar  
   140  131  141 1   
   141  132  133 ar  
   142  132  142 1   
   143  133  134 1   
   144  134  143 1   
   145  144  145 1   
   146  144  153 1   
   147  145  146 1   
   148  145  148 1   
   149  145  154 1   
   150  146  147 2   
   151  146  159 1   
   152  148  149 1   
   153  148  155 1   
   154  148  156 1   
   155  149  150 1   
   156  149  157 1   
   157  149  158 1   
   158  150  151 1   
   159  150  152 1   
   160  159  160 1   
   161  159  168 1   
   162  160  161 1   
   163  160  163 1   
   164  160  169 1   
   165  161  162 2   
   166  161  174 1   
   167  163  164 1   
   168  163  170 1   
   169  163  171 1   
   170  164  165 1   
   171  164  172 1   
   172  164  173 1   
   173  165  166 1   
   174  165  167 1   
   175  174  175 1   
   176  174  179 1   
   177  175  176 1   
   178  175  177 1   
   179  175  178 1   
   180  181  182 1   
   181  181  183 1   
   182  184  185 1   
   183  184  186 1   
   184  187  188 1   
   185  187  189 1   
   186  190  191 1   
   187  190  192 1   
@<TRIPOS>SUBSTRUCTURE
     1 MOL         1 TEMP              0 ****  ****    0 ROOT
