@<TRIPOS>MOLECULE
MOL
  185   180     1     0     0
SMALL
resp


@<TRIPOS>ATOM
      1 C1         -5.6460    1.1980   -3.5920 c3        1 MOL     -0.423895
      2 C2         -6.2070    1.3890   -2.1750 c         1 MOL      0.486791
      3 O1         -5.4810    1.2510   -1.1930 o         1 MOL     -0.384056
      4 H1         -4.7440    1.7990   -3.7090 hc        1 MOL      0.105042
      5 H2         -5.4050    0.1470   -3.7500 hc        1 MOL      0.105042
      6 H3         -6.3900    1.5150   -4.3230 hc        1 MOL      0.105042
      7 N1         -7.5100    1.6810   -2.0920 n         1 MOL     -0.460540
      8 C3         -8.2100    1.9520   -0.8340 c3        1 MOL     -0.058876
      9 C4         -8.1210    0.8030    0.1130 c         1 MOL      0.432868
     10 O2         -7.9650    0.9990    1.3180 o         1 MOL     -0.472580
     11 C5         -7.7960    3.3430   -0.2890 c3        1 MOL     -0.200213
     12 C6         -8.6910    3.8910    0.8390 c         1 MOL      0.636856
     13 O3         -9.9370    3.7750    0.7410 o         1 MOL     -0.617887
     14 O4         -8.1260    4.6650    1.6690 o         1 MOL     -0.617887
     15 H4         -8.1170    1.7940   -2.8890 hn        1 MOL      0.319597
     16 H5         -9.2750    2.0280   -1.0760 h1        1 MOL      0.072785
     17 H6         -7.7250    4.1710   -0.9910 hc        1 MOL      0.128802
     18 H7         -6.7680    3.2310    0.0730 hc        1 MOL      0.128802
     19 N2         -8.0590   -0.4410   -0.4060 n         1 MOL     -0.295603
     20 C7         -8.0550   -1.7160    0.3310 c3        1 MOL     -0.005769
     21 C8         -6.6110   -2.1540    0.7500 c         1 MOL      0.574036
     22 O5         -6.4580   -3.1930    1.3650 o         1 MOL     -0.606421
     23 C9         -8.6830   -2.7990   -0.4950 c3        1 MOL     -0.050041
     24 C10       -10.1760   -2.6210   -0.5920 c3        1 MOL      0.082606
     25 C11       -11.1340   -3.7560   -1.0110 c3        1 MOL     -0.170118
     26 C12       -10.6490   -4.3030   -2.3390 c3        1 MOL      0.168523
     27 N3        -11.4720   -5.4450   -2.7760 n4        1 MOL     -0.290603
     28 H8         -8.2120   -0.4750   -1.4050 hn        1 MOL      0.188656
     29 H9         -8.5190   -1.4550    1.2830 h1        1 MOL      0.133428
     30 H10        -8.5920   -3.8350   -0.1690 hc        1 MOL      0.019707
     31 H11        -8.2980   -2.7210   -1.5190 hc        1 MOL      0.019707
     32 H12       -10.5460   -1.6980   -1.0340 hc        1 MOL      0.001577
     33 H13       -10.4730   -2.4730    0.4440 hc        1 MOL      0.001577
     34 H14       -12.1620   -3.3960   -0.9920 hc        1 MOL      0.084286
     35 H15       -10.9570   -4.5260   -0.2560 hc        1 MOL      0.084286
     36 H16        -9.6240   -4.6640   -2.2160 hx        1 MOL      0.033196
     37 H17       -10.6920   -3.5820   -3.1580 hx        1 MOL      0.033196
     38 H18       -12.4680   -5.2660   -2.7930 hn        1 MOL      0.239146
     39 H19       -11.3230   -5.7420   -3.7280 hn        1 MOL      0.239146
     40 H20       -11.1270   -6.3100   -2.3840 hn        1 MOL      0.239146
     41 N4         -5.6100   -1.3590    0.4670 n         1 MOL     -0.332831
     42 C13        -4.1960   -1.7620    0.6020 c3        1 MOL     -0.091084
     43 C14        -3.6460   -2.0170    2.0600 c         1 MOL      0.652462
     44 O6         -3.7560   -1.2240    2.9660 o         1 MOL     -0.508651
     45 C15        -3.4000   -0.7030   -0.1450 c3        1 MOL     -0.231133
     46 C16        -1.9410   -0.9160   -0.2990 c         1 MOL      0.557793
     47 O7         -1.4480   -1.2340   -1.4130 o         1 MOL     -0.739978
     48 O8         -1.1340   -0.7420    0.6220 o         1 MOL     -0.739978
     49 H21        -5.7540   -0.4070    0.1700 hn        1 MOL      0.180570
     50 H22        -3.9690   -2.6420    0.0070 h1        1 MOL      0.064130
     51 H23        -3.5620    0.2300    0.3780 hc        1 MOL      0.173911
     52 H24        -3.8190   -0.6420   -1.1570 hc        1 MOL      0.173911
     53 N5         -3.1180   -3.2280    2.2240 n         1 MOL     -0.148009
     54 C17        -2.7710   -3.8480    3.5120 c3        1 MOL     -0.142309
     55 C18        -1.8620   -2.9200    4.3330 c         1 MOL      0.475130
     56 O9         -2.0510   -2.7910    5.5790 o         1 MOL     -0.525461
     57 H25        -3.1700   -3.8950    1.4610 hn        1 MOL      0.169202
     58 H26        -2.2690   -4.7940    3.2730 h1        1 MOL      0.093712
     59 H27        -3.6970   -4.0880    4.0350 h1        1 MOL      0.093712
     60 N6         -0.9710   -2.0610    3.7570 n         1 MOL     -0.311769
     61 C19        -0.1590   -1.1000    4.4010 c3        1 MOL     -0.020822
     62 C20        -0.3260    0.4210    3.9500 c         1 MOL      0.539024
     63 O10         0.3750    1.3140    4.3350 o         1 MOL     -0.574687
     64 C21         1.2990   -1.5610    4.2540 c3        1 MOL     -0.142215
     65 C22         1.9070   -1.1920    2.9280 c         1 MOL      0.509977
     66 N7          3.0780   -0.6790    2.8690 n         1 MOL     -0.645398
     67 O11         1.3070   -1.3100    1.8850 o         1 MOL     -0.560758
     68 H28        -0.8150   -2.1540    2.7560 hn        1 MOL      0.250509
     69 H29        -0.2960   -1.0730    5.4820 h1        1 MOL      0.108179
     70 H30         1.5200   -2.5540    4.6500 hc        1 MOL      0.075607
     71 H31         1.9380   -1.0630    4.9970 hc        1 MOL      0.075607
     72 H32         3.6160   -0.4480    3.6910 hn        1 MOL      0.319942
     73 H33         3.4210   -0.3400    1.9740 hn        1 MOL      0.319942
     74 N8         -1.3830    0.7180    3.2120 n         1 MOL     -0.123610
     75 C23        -1.9120    2.0280    2.9750 c3        1 MOL     -0.273553
     76 C24        -1.2450    2.7830    1.8140 c         1 MOL      0.458656
     77 O12        -1.3630    3.9930    1.6930 o         1 MOL     -0.472863
     78 H34        -1.8690   -0.1220    2.9390 hn        1 MOL      0.084875
     79 H35        -2.0290    2.6330    3.8700 h1        1 MOL      0.166712
     80 H36        -2.9450    1.9400    2.6380 h1        1 MOL      0.166712
     81 N9         -0.6980    2.0060    0.8400 n         1 MOL     -0.196048
     82 C25        -0.0850    2.6360   -0.3370 c3        1 MOL      0.134103
     83 C26         1.3460    2.1210   -0.6000 c         1 MOL      0.314211
     84 O13         1.5760    0.9340   -0.5230 o         1 MOL     -0.373322
     85 C27        -0.9980    2.4490   -1.5620 c3        1 MOL     -0.046734
     86 C28        -1.9880    3.5810   -1.6920 ca        1 MOL      0.276409
     87 C29        -3.0900    3.6680   -0.8060 ca        1 MOL     -0.407403
     88 C30        -1.8700    4.4050   -2.8070 ca        1 MOL     -0.407403
     89 C31        -4.0400    4.6370   -0.9090 ca        1 MOL     -0.017558
     90 C32        -2.8940    5.4030   -2.9740 ca        1 MOL     -0.017558
     91 C33        -3.9850    5.4790   -2.0720 ca        1 MOL      0.138454
     92 O14        -4.9280    6.3920   -2.2690 oh        1 MOL     -0.398985
     93 H37        -0.6780    1.0040    0.9370 hn        1 MOL      0.103779
     94 H38        -0.0330    3.7180   -0.2090 h1        1 MOL     -0.004867
     95 H39        -1.5320    1.4970   -1.5350 hc        1 MOL      0.039317
     96 H40        -0.3430    2.2870   -2.4160 hc        1 MOL      0.039317
     97 H41        -3.1830    2.9810    0.0250 ha        1 MOL      0.143599
     98 H42        -1.0080    4.2400   -3.4530 ha        1 MOL      0.143599
     99 H43        -4.7840    4.6890   -0.1290 ha        1 MOL      0.082483
    100 H44        -2.7640    6.1090   -3.7770 ha        1 MOL      0.082483
    101 H45        -4.7980    6.9650   -3.0380 ho        1 MOL      0.324664
    102 N10         2.2580    2.9460   -1.0560 n         1 MOL     -0.375947
    103 C34         3.5890    2.4600   -1.4020 c3        1 MOL      0.009779
    104 C35         4.4140    2.2390   -0.1190 c         1 MOL      0.661306
    105 O15         4.5100    1.1540    0.4200 o         1 MOL     -0.521563
    106 C36         4.3510    3.3130   -2.4360 c3        1 MOL     -0.084098
    107 C37         3.5420    3.5450   -3.6990 c3        1 MOL      0.492021
    108 C38         5.8000    2.6360   -2.6740 c3        1 MOL     -0.472977
    109 C39         3.2940    2.3110   -4.6550 c3        1 MOL     -0.658347
    110 H46         2.1380    3.9450   -1.0300 hn        1 MOL      0.291968
    111 H47         3.4310    1.4640   -1.8180 h1        1 MOL      0.006860
    112 H48         4.4120    4.3090   -1.9910 hc        1 MOL     -0.010248
    113 H49         3.9170    4.4040   -4.2700 hc        1 MOL     -0.084431
    114 H50         2.5870    3.9670   -3.3970 hc        1 MOL     -0.084431
    115 H51         5.7580    1.5480   -2.5980 hc        1 MOL      0.126773
    116 H52         6.1580    2.8540   -3.6740 hc        1 MOL      0.126773
    117 H53         6.4950    2.8320   -1.8620 hc        1 MOL      0.126773
    118 H54         4.2580    1.8450   -4.8400 hc        1 MOL      0.169617
    119 H55         2.6540    1.5360   -4.2210 hc        1 MOL      0.169617
    120 H56         3.0530    2.7510   -5.6230 hc        1 MOL      0.169617
    121 N11         5.0340    3.3290    0.4330 n         1 MOL     -0.486224
    122 C40         5.8000    3.3180    1.7080 c3        1 MOL      0.097595
    123 C41         7.1670    2.6010    1.6980 c         1 MOL      0.232151
    124 O16         7.4740    1.8750    2.6800 o         1 MOL     -0.441716
    125 C42         5.8690    4.7120    2.4750 c3        1 MOL      0.119744
    126 O17         4.4840    5.1110    2.8040 oh        1 MOL     -0.607870
    127 H57         4.9700    4.1920   -0.0990 hn        1 MOL      0.325935
    128 H58         5.1730    2.7600    2.4100 h1        1 MOL      0.126396
    129 H59         6.4540    5.4000    1.8650 h1        1 MOL      0.034922
    130 H60         6.3900    4.5230    3.4130 h1        1 MOL      0.034922
    131 H61         4.4860    5.7620    3.5170 ho        1 MOL      0.423358
    132 N12         7.9310    2.8470    0.6290 n         1 MOL     -0.115099
    133 C43         9.2390    2.2820    0.3250 c3        1 MOL      0.114162
    134 C44         9.2490    0.7060    0.3190 c         1 MOL      0.536194
    135 O18        10.1440    0.0000    0.7580 o         1 MOL     -0.527004
    136 C45        10.2830    2.8970    1.2370 c3        1 MOL     -0.459433
    137 H62         7.6190    3.5970    0.0350 hn        1 MOL      0.191539
    138 H63         9.4790    2.5710   -0.6960 h1        1 MOL      0.057823
    139 H64        11.2650    2.9020    0.7580 hc        1 MOL      0.139831
    140 H65         9.9840    3.9310    1.4300 hc        1 MOL      0.139831
    141 H66        10.2240    2.3690    2.1920 hc        1 MOL      0.139831
    142 N13         8.1460    0.0680   -0.0350 n         1 MOL     -0.571235
    143 C46         7.8740   -1.3280    0.3680 c3        1 MOL      0.411436
    144 C47         7.0510   -2.1420   -0.5950 c         1 MOL      0.354787
    145 O19         6.3080   -1.5770   -1.4400 o         1 MOL     -0.494615
    146 C48         7.0710   -1.1460    1.7310 c3        1 MOL     -0.294801
    147 H67         7.3210    0.6360   -0.1490 hn        1 MOL      0.189196
    148 H68         8.7460   -1.9510    0.5630 h1        1 MOL      0.013238
    149 H69         6.8750   -2.1190    2.1780 hc        1 MOL      0.089232
    150 H70         7.6940   -0.6140    2.4580 hc        1 MOL      0.089232
    151 H71         6.0960   -0.6730    1.6240 hc        1 MOL      0.089232
    152 N14         7.0330   -3.4790   -0.4220 n         1 MOL     -0.344535
    153 C49         6.3860   -4.4160   -1.3730 c3        1 MOL      0.065671
    154 C50         6.8390   -4.2610   -2.8930 c         1 MOL      0.426845
    155 O20         6.2180   -4.4650   -3.9000 o         1 MOL     -0.485191
    156 C51         4.8910   -4.4380   -1.2690 c3        1 MOL      0.050729
    157 C52         4.2540   -4.8520    0.0870 c3        1 MOL     -0.044944
    158 C53         2.7190   -4.8590    0.0270 c         1 MOL      0.782983
    159 O21         2.1190   -5.9840   -0.1050 o         1 MOL     -0.756743
    160 O22         2.0610   -3.8410    0.0460 o         1 MOL     -0.756743
    161 H72         7.5480   -3.9180    0.3320 hn        1 MOL      0.262962
    162 H73         6.7400   -5.4290   -1.1360 h1        1 MOL      0.039057
    163 H74         4.6140   -5.1180   -2.0780 hc        1 MOL     -0.015731
    164 H75         4.4850   -3.4630   -1.5420 hc        1 MOL     -0.015731
    165 H76         4.5360   -4.0840    0.8050 hc        1 MOL     -0.027941
    166 H77         4.6490   -5.7500    0.5650 hc        1 MOL     -0.027941
    167 N15         8.1150   -3.9490   -3.0060 n         1 MOL     -0.244107
    168 C54         8.8630   -3.7020   -4.2720 c3        1 MOL     -0.083890
    169 H78         9.5920   -2.9080   -4.1130 h1        1 MOL      0.074693
    170 H79         9.3800   -4.6140   -4.5730 h1        1 MOL      0.074693
    171 H80         8.1660   -3.4030   -5.0550 h1        1 MOL      0.074693
    172 H81         8.5430   -3.8070   -2.1140 hn        1 MOL      0.165232
    173 Ca1         0.9930   -1.5540   -0.8630 Ca        1 MOL      1.777277
    174 O23        -0.6650   -4.1570    0.1190 oh        1 MOL     -0.847567
    175 H82         0.1720   -4.6200    0.1150 ho        1 MOL      0.412526
    176 H83        -1.2410   -4.7020   -0.4110 ho        1 MOL      0.412526
    177 O24         0.8760   -3.3000   -2.8660 oh        1 MOL     -0.847567
    178 H84         0.7620   -3.4180   -3.8110 ho        1 MOL      0.412526
    179 H85         0.8090   -4.1760   -2.4980 ho        1 MOL      0.412526
    180 O25         3.6780   -0.9990   -0.8240 oh        1 MOL     -0.847567
    181 H86         3.8760   -0.2750   -0.2430 ho        1 MOL      0.412526
    182 H87         4.5310   -1.3230   -1.1170 ho        1 MOL      0.412526
    183 O26         1.1130   -0.3360   -3.3590 oh        1 MOL     -0.847567
    184 H88         1.7280   -0.8650   -3.8600 ho        1 MOL      0.412526
    185 H89         0.7260    0.2490   -3.9990 ho        1 MOL      0.412526
@<TRIPOS>BOND
     1    1    2 1   
     2    1    4 1   
     3    1    5 1   
     4    1    6 1   
     5    2    3 2   
     6    2    7 1   
     7    7    8 1   
     8    7   15 1   
     9    8    9 1   
    10    8   11 1   
    11    8   16 1   
    12    9   10 2   
    13    9   19 1   
    14   11   12 1   
    15   11   17 1   
    16   11   18 1   
    17   12   13 1   
    18   12   14 1   
    19   19   20 1   
    20   19   28 1   
    21   20   21 1   
    22   20   23 1   
    23   20   29 1   
    24   21   22 2   
    25   21   41 1   
    26   23   24 1   
    27   23   30 1   
    28   23   31 1   
    29   24   25 1   
    30   24   32 1   
    31   24   33 1   
    32   25   26 1   
    33   25   34 1   
    34   25   35 1   
    35   26   27 1   
    36   26   36 1   
    37   26   37 1   
    38   27   38 1   
    39   27   39 1   
    40   27   40 1   
    41   41   42 1   
    42   41   49 1   
    43   42   43 1   
    44   42   45 1   
    45   42   50 1   
    46   43   44 2   
    47   43   53 1   
    48   45   46 1   
    49   45   51 1   
    50   45   52 1   
    51   46   47 1   
    52   46   48 1   
    53   53   54 1   
    54   53   57 1   
    55   54   55 1   
    56   54   58 1   
    57   54   59 1   
    58   55   56 2   
    59   55   60 1   
    60   60   61 1   
    61   60   68 1   
    62   61   62 1   
    63   61   64 1   
    64   61   69 1   
    65   62   63 2   
    66   62   74 1   
    67   64   65 1   
    68   64   70 1   
    69   64   71 1   
    70   65   66 1   
    71   65   67 2   
    72   66   72 1   
    73   66   73 1   
    74   74   75 1   
    75   74   78 1   
    76   75   76 1   
    77   75   79 1   
    78   75   80 1   
    79   76   77 2   
    80   76   81 1   
    81   81   82 1   
    82   81   93 1   
    83   82   83 1   
    84   82   85 1   
    85   82   94 1   
    86   83   84 2   
    87   83  102 1   
    88   85   86 1   
    89   85   95 1   
    90   85   96 1   
    91   86   87 ar  
    92   86   88 ar  
    93   87   89 ar  
    94   87   97 1   
    95   88   90 ar  
    96   88   98 1   
    97   89   91 ar  
    98   89   99 1   
    99   90   91 ar  
   100   90  100 1   
   101   91   92 1   
   102   92  101 1   
   103  102  103 1   
   104  102  110 1   
   105  103  104 1   
   106  103  106 1   
   107  103  111 1   
   108  104  105 2   
   109  104  121 1   
   110  106  107 1   
   111  106  108 1   
   112  106  112 1   
   113  107  109 1   
   114  107  113 1   
   115  107  114 1   
   116  108  115 1   
   117  108  116 1   
   118  108  117 1   
   119  109  118 1   
   120  109  119 1   
   121  109  120 1   
   122  121  122 1   
   123  121  127 1   
   124  122  123 1   
   125  122  125 1   
   126  122  128 1   
   127  123  124 2   
   128  123  132 1   
   129  125  126 1   
   130  125  129 1   
   131  125  130 1   
   132  126  131 1   
   133  132  133 1   
   134  132  137 1   
   135  133  134 1   
   136  133  136 1   
   137  133  138 1   
   138  134  135 2   
   139  134  142 1   
   140  136  139 1   
   141  136  140 1   
   142  136  141 1   
   143  142  143 1   
   144  142  147 1   
   145  143  144 1   
   146  143  146 1   
   147  143  148 1   
   148  144  145 2   
   149  144  152 1   
   150  146  149 1   
   151  146  150 1   
   152  146  151 1   
   153  152  153 1   
   154  152  161 1   
   155  153  154 1   
   156  153  156 1   
   157  153  162 1   
   158  154  155 2   
   159  154  167 1   
   160  156  157 1   
   161  156  163 1   
   162  156  164 1   
   163  157  158 1   
   164  157  165 1   
   165  157  166 1   
   166  158  159 1   
   167  158  160 1   
   168  167  168 1   
   169  167  172 1   
   170  168  169 1   
   171  168  170 1   
   172  168  171 1   
   173  174  175 1   
   174  174  176 1   
   175  177  178 1   
   176  177  179 1   
   177  180  181 1   
   178  180  182 1   
   179  183  184 1   
   180  183  185 1   
@<TRIPOS>SUBSTRUCTURE
     1 MOL         1 TEMP              0 ****  ****    0 ROOT
