@<TRIPOS>MOLECULE
MOL
  189   185     1     0     0
SMALL
resp


@<TRIPOS>ATOM
      1 C1          3.9250    3.9670   -3.3970 c3        1 MOL     -0.458831
      2 C2          4.7960    3.0560   -2.4410 c         1 MOL      0.920338
      3 O1          4.2990    2.6790   -1.3840 o         1 MOL     -0.707288
      4 H1          2.8780    3.9110   -3.0970 hc        1 MOL      0.107573
      5 H2          4.2680    4.9990   -3.3260 hc        1 MOL      0.107573
      6 H3          4.0280    3.6190   -4.4240 hc        1 MOL      0.107573
      7 N1          5.9440    2.7120   -2.8250 n         1 MOL     -0.887670
      8 C3          6.8240    1.5850   -2.3420 c3        1 MOL      0.652341
      9 C4          6.0320    0.3510   -1.9790 c         1 MOL      0.090580
     10 O2          5.8700    0.1200   -0.7840 o         1 MOL     -0.257004
     11 C5          7.8780    2.0140   -1.2630 c3        1 MOL     -0.159073
     12 C6          7.6400    3.2140   -0.3430 c         1 MOL      0.780318
     13 O3          6.5290    3.4170    0.1310 o         1 MOL     -0.752971
     14 O4          8.5750    4.0550   -0.1550 o         1 MOL     -0.752971
     15 H4          6.2900    3.2120   -3.6350 hn        1 MOL      0.340570
     16 H5          7.4170    1.1670   -3.1590 h1        1 MOL     -0.077085
     17 H6          8.6790    2.3320   -1.9390 hc        1 MOL     -0.021373
     18 H7          8.2030    1.0960   -0.7890 hc        1 MOL     -0.021373
     19 N2          5.5920   -0.4870   -2.9520 n         1 MOL     -0.232434
     20 C7          4.8560   -1.7920   -2.9010 c3        1 MOL      0.047158
     21 C8          5.6570   -2.8830   -2.1650 c         1 MOL      0.349318
     22 O5          6.3430   -3.7480   -2.7220 o         1 MOL     -0.549892
     23 C9          3.3700   -1.6120   -2.4400 c3        1 MOL      0.190941
     24 C10         2.6080   -2.9390   -2.6760 c3        1 MOL     -0.113664
     25 C11         2.5680   -0.3980   -3.1090 c3        1 MOL     -0.608722
     26 C12         2.5260   -3.5490   -4.0650 c3        1 MOL     -0.073289
     27 H8          5.8500   -0.1830   -3.8730 hn        1 MOL      0.203939
     28 H9          4.8070   -2.0930   -3.9510 h1        1 MOL      0.019204
     29 H10         3.3040   -1.4290   -1.3700 hc        1 MOL      0.016543
     30 H11         1.5920   -2.7160   -2.3760 hc        1 MOL      0.039294
     31 H12         3.0520   -3.6930   -2.0220 hc        1 MOL      0.039294
     32 H13         1.5120   -0.4030   -2.8450 hc        1 MOL      0.153947
     33 H14         3.0270    0.4770   -2.6490 hc        1 MOL      0.153947
     34 H15         2.7180   -0.4110   -4.1870 hc        1 MOL      0.153947
     35 H16         1.8790   -4.4240   -4.1440 hc        1 MOL      0.015574
     36 H17         2.1440   -2.8050   -4.7610 hc        1 MOL      0.015574
     37 H18         3.4420   -4.0280   -4.4220 hc        1 MOL      0.015574
     38 N3          5.7960   -2.7950   -0.8240 n         1 MOL      0.027123
     39 C13         6.6390   -3.7210   -0.0770 c3        1 MOL      0.060397
     40 C14         5.9690   -5.0110    0.5350 c         1 MOL      0.458024
     41 O6          6.6190   -6.0490    0.6020 o         1 MOL     -0.547936
     42 C15         7.4190   -2.9860    1.0180 c3        1 MOL     -0.229927
     43 C16         8.4010   -1.9460    0.5180 c         1 MOL      0.635744
     44 O7          8.4390   -0.7510    1.0050 o         1 MOL     -0.677055
     45 O8          9.1540   -2.2400   -0.4380 o         1 MOL     -0.677055
     46 H19         5.4380   -2.0140   -0.2810 hn        1 MOL      0.096054
     47 H20         7.3680   -4.0980   -0.7900 h1        1 MOL      0.068348
     48 H21         7.9660   -3.7040    1.6280 hc        1 MOL      0.083931
     49 H22         6.7080   -2.4530    1.6450 hc        1 MOL      0.083931
     50 N4          4.7300   -5.0340    1.1430 n         1 MOL     -0.507745
     51 C17         3.9320   -3.9130    1.5180 c3        1 MOL      0.008980
     52 C18         4.4210   -3.2920    2.8720 c         1 MOL      0.521259
     53 O9          5.3720   -3.6610    3.4880 o         1 MOL     -0.531852
     54 H23         4.3740   -5.9010    1.5210 hn        1 MOL      0.309207
     55 H24         2.8870   -4.2320    1.5180 h1        1 MOL      0.035544
     56 H25         3.9610   -3.0960    0.7990 h1        1 MOL      0.035544
     57 N5          3.7250   -2.3200    3.4370 n         1 MOL     -0.423522
     58 C19         2.4870   -1.6480    2.9630 c3        1 MOL      0.116954
     59 C20         2.6000   -0.9340    1.6160 c         1 MOL      0.059894
     60 O10         3.7190   -0.6220    1.1190 o         1 MOL     -0.378658
     61 C21         2.2060   -0.5460    3.9930 c3        1 MOL     -0.317279
     62 C22         3.4080    0.4450    4.1090 c         1 MOL      0.652600
     63 O11         4.4790    0.2580    4.7880 o         1 MOL     -0.635925
     64 O12         3.2970    1.4920    3.3800 o         1 MOL     -0.635925
     65 H26         4.1340   -2.0420    4.3250 hn        1 MOL      0.282711
     66 H27         1.7270   -2.4250    2.9690 h1        1 MOL      0.049100
     67 H28         2.0190   -1.0460    4.9400 hc        1 MOL      0.073887
     68 H29         1.2900   -0.0050    3.7190 hc        1 MOL      0.073887
     69 N6          1.4430   -0.5480    1.0450 n         1 MOL     -0.152490
     70 C23         0.0520   -0.9460    1.3090 c3        1 MOL     -0.059914
     71 C24        -0.2050   -2.3420    0.7750 c         1 MOL      0.709921
     72 O13         0.6740   -3.0650    0.3990 o         1 MOL     -0.481853
     73 H30         1.5530    0.0140    0.2120 hn        1 MOL      0.225467
     74 H31        -0.6500   -0.1980    0.9490 h1        1 MOL      0.114799
     75 H32        -0.1080   -1.0310    2.3790 h1        1 MOL      0.114799
     76 N7         -1.5220   -2.6730    0.5150 n         1 MOL     -0.652828
     77 C25        -2.1170   -3.9080    0.0170 c3        1 MOL      0.084155
     78 C26        -2.9710   -3.8560   -1.2460 c         1 MOL      0.434104
     79 O14        -3.0200   -4.8930   -1.9740 o         1 MOL     -0.518701
     80 C27        -2.7440   -4.6240    1.2730 c3        1 MOL      0.121773
     81 C28        -3.7980   -3.7990    2.0630 c3        1 MOL     -0.733794
     82 C29        -5.0090   -3.4810    1.1990 c         1 MOL      0.514507
     83 N8         -5.6890   -4.4930    0.7870 n         1 MOL     -0.715616
     84 O15        -5.2070   -2.3660    0.7760 o         1 MOL     -0.307296
     85 H33        -2.1980   -1.9210    0.5570 hn        1 MOL      0.221468
     86 H34        -1.2890   -4.5440   -0.3170 h1        1 MOL      0.094959
     87 H35        -1.8970   -4.8280    1.9250 hc        1 MOL      0.024786
     88 H36        -3.0760   -5.5930    0.9160 hc        1 MOL      0.024786
     89 H37        -3.4550   -2.8420    2.4640 hc        1 MOL      0.242711
     90 H38        -4.1890   -4.3810    2.8960 hc        1 MOL      0.242711
     91 H39        -5.5500   -5.3950    1.2140 hn        1 MOL      0.362659
     92 H40        -6.4120   -4.2930    0.1060 hn        1 MOL      0.362659
     93 N9         -3.4470   -2.6230   -1.6310 n         1 MOL     -0.249298
     94 C30        -3.9860   -2.4420   -2.9600 c3        1 MOL     -0.045206
     95 C31        -5.3740   -1.8510   -3.0610 c         1 MOL      0.416875
     96 O16        -5.9130   -1.7160   -4.1890 o         1 MOL     -0.553707
     97 C32        -3.0160   -1.7370   -3.8540 c3        1 MOL      0.238353
     98 C33        -1.7470   -2.5570   -4.2390 c3        1 MOL     -0.337617
     99 C34        -2.6030   -0.3180   -3.4330 c3        1 MOL     -0.337617
    100 H41        -3.4830   -1.9120   -0.9170 hn        1 MOL      0.230955
    101 H42        -4.2760   -3.4110   -3.3600 h1        1 MOL      0.111949
    102 H43        -3.5260   -1.6480   -4.8140 hc        1 MOL     -0.010757
    103 H44        -1.0590   -1.8890   -4.7740 hc        1 MOL      0.082823
    104 H45        -1.2430   -3.1810   -3.5060 hc        1 MOL      0.082823
    105 H46        -2.0220   -3.4150   -4.8540 hc        1 MOL      0.082823
    106 H47        -2.0300    0.1960   -4.2000 hc        1 MOL      0.082823
    107 H48        -3.5380    0.1280   -3.0940 hc        1 MOL      0.082823
    108 H49        -1.9380   -0.4290   -2.5730 hc        1 MOL      0.082823
    109 N10        -6.0590   -1.6470   -1.8970 n         1 MOL     -0.038354
    110 C35        -7.4440   -1.1860   -1.8300 c3        1 MOL      0.009334
    111 C36        -7.3720    0.2490   -1.4350 c         1 MOL      0.608720
    112 O17        -8.3640    0.9220   -1.8160 o         1 MOL     -0.589291
    113 C37        -8.2730   -2.0860   -0.9170 c3        1 MOL      0.070410
    114 C38        -8.4510   -3.5080   -1.4150 c         1 MOL      0.578555
    115 N11        -9.4360   -3.7060   -2.2810 n         1 MOL     -0.778620
    116 O18        -7.6680   -4.4010   -1.1320 o         1 MOL     -0.531648
    117 H50        -5.5370   -2.0130   -1.1210 hn        1 MOL     -0.023634
    118 H51        -7.8810   -1.2310   -2.8240 h1        1 MOL      0.030586
    119 H52        -9.2820   -1.7160   -0.7560 hc        1 MOL     -0.037240
    120 H53        -7.7480   -2.1550    0.0430 hc        1 MOL     -0.037240
    121 H54       -10.0760   -2.9550   -2.5100 hn        1 MOL      0.370379
    122 H55        -9.4690   -4.6140   -2.7140 hn        1 MOL      0.370379
    123 N12        -6.4320    0.7180   -0.6030 n         1 MOL     -0.644349
    124 C39        -6.4590    2.1120   -0.0300 c3        1 MOL      0.376375
    125 C40        -5.0590    2.7370    0.1170 c         1 MOL      0.379678
    126 O19        -4.0250    2.1780   -0.1100 o         1 MOL     -0.386376
    127 C41        -7.3210    1.9650    1.2880 c3        1 MOL     -0.061336
    128 C42        -7.0730    0.7080    2.1350 ca        1 MOL      0.388734
    129 C43        -8.1370   -0.1980    2.4230 ca        1 MOL     -0.472617
    130 C44        -5.8030    0.4150    2.6370 ca        1 MOL     -0.472617
    131 C45        -7.9190   -1.3860    3.1640 ca        1 MOL      0.050415
    132 C46        -5.5980   -0.7620    3.4360 ca        1 MOL      0.050415
    133 C47        -6.6450   -1.6920    3.6530 ca        1 MOL      0.056262
    134 O20        -6.3710   -2.7320    4.4420 oh        1 MOL     -0.391079
    135 H56        -5.7350    0.1410   -0.1520 hn        1 MOL      0.260966
    136 H57        -7.0390    2.7270   -0.7210 h1        1 MOL     -0.004903
    137 H58        -8.3680    2.0980    1.0240 hc        1 MOL      0.004658
    138 H59        -7.1030    2.7950    1.9690 hc        1 MOL      0.004658
    139 H60        -9.1260    0.0030    2.0550 ha        1 MOL      0.163201
    140 H61        -4.9310    1.0080    2.4040 ha        1 MOL      0.163201
    141 H62        -8.7570   -1.9910    3.4910 ha        1 MOL      0.068721
    142 H63        -4.6220   -0.9520    3.8600 ha        1 MOL      0.068721
    143 H64        -7.1640   -3.2750    4.4960 ho        1 MOL      0.306365
    144 N13        -5.1780    4.0740    0.3180 n         1 MOL     -0.529969
    145 C48        -4.1790    5.0860    0.7610 c3        1 MOL      0.035281
    146 C49        -3.0160    5.2360   -0.2210 c         1 MOL      0.367033
    147 O21        -2.5020    6.3250   -0.3910 o         1 MOL     -0.562388
    148 C50        -3.5280    4.6490    2.1020 c3        1 MOL      0.189047
    149 C51        -4.4940    4.4220    3.2350 c3        1 MOL     -0.170354
    150 C52        -3.9070    3.6970    4.4320 c         1 MOL      0.597634
    151 O22        -4.1890    2.4830    4.6120 o         1 MOL     -0.655297
    152 O23        -3.1570    4.2970    5.2350 o         1 MOL     -0.655297
    153 H65        -6.1180    4.4260    0.2760 hn        1 MOL      0.286762
    154 H66        -4.7330    6.0050    0.9530 h1        1 MOL      0.069714
    155 H67        -2.8150    5.4010    2.4320 hc        1 MOL      0.005099
    156 H68        -2.9250    3.7560    1.9570 hc        1 MOL      0.005099
    157 H69        -5.2330    3.7460    2.7930 hc        1 MOL     -0.008767
    158 H70        -4.8420    5.3830    3.5950 hc        1 MOL     -0.008767
    159 N14        -2.4030    4.2580   -0.7780 n         1 MOL     -0.183059
    160 C53        -1.1640    4.4220   -1.6070 c3        1 MOL     -0.274043
    161 C54        -1.3960    5.0980   -2.9140 c         1 MOL      0.598215
    162 O24        -0.4200    5.5090   -3.4810 o         1 MOL     -0.560008
    163 C55        -0.4620    3.0410   -1.8330 c3        1 MOL      0.097904
    164 C56        -0.1390    2.1940   -0.6310 c3        1 MOL      0.133198
    165 C57         1.0770    2.6370    0.1720 c         1 MOL      0.724376
    166 O25         1.0660    3.6900    0.7940 o         1 MOL     -0.700133
    167 O26         2.0900    1.9720    0.1970 o         1 MOL     -0.700133
    168 H71        -2.8460    3.3460   -0.7550 hn        1 MOL      0.217578
    169 H72        -0.4820    5.1290   -1.1280 h1        1 MOL      0.213330
    170 H73         0.4270    3.1730   -2.4440 hc        1 MOL     -0.016852
    171 H74        -1.2240    2.5090   -2.4210 hc        1 MOL     -0.016852
    172 H75         0.0130    1.1910   -1.0140 hc        1 MOL     -0.091837
    173 H76        -0.9910    2.0670    0.0440 hc        1 MOL     -0.091837
    174 N15        -2.6450    5.2310   -3.3430 n         1 MOL     -0.254728
    175 C58        -3.1570    6.1360   -4.4050 c3        1 MOL     -0.356973
    176 H77        -4.2070    6.3600   -4.2150 h1        1 MOL      0.132164
    177 H78        -2.5820    7.0610   -4.4030 h1        1 MOL      0.132164
    178 H79        -3.0600    5.6490   -5.3750 h1        1 MOL      0.132164
    179 H80        -3.3970    4.7740   -2.8450 hn        1 MOL      0.216029
    180 Ca1         4.4610    1.9320    1.1370 Ca        1 MOL      1.670533
    181 O27         5.7950    3.5700    2.9800 oh        1 MOL     -0.831120
    182 H81         5.3510    4.2270    3.5010 ho        1 MOL      0.390590
    183 H82         6.5960    3.9910    2.6750 ho        1 MOL      0.390590
    184 O28         6.6850    0.8890    2.0550 oh        1 MOL     -0.831120
    185 H83         7.2400    1.3230    2.6980 ho        1 MOL      0.390590
    186 H84         7.2680    0.2750    1.6080 ho        1 MOL      0.390590
    187 O29         3.3810    4.2840    1.4060 oh        1 MOL     -0.831120
    188 H85         3.4260    5.2440    1.3950 ho        1 MOL      0.390590
    189 H86         2.5140    4.0830    1.0790 ho        1 MOL      0.390590
@<TRIPOS>BOND
     1    1    2 1   
     2    1    4 1   
     3    1    5 1   
     4    1    6 1   
     5    2    3 2   
     6    2    7 1   
     7    7    8 1   
     8    7   15 1   
     9    8    9 1   
    10    8   11 1   
    11    8   16 1   
    12    9   10 2   
    13    9   19 1   
    14   11   12 1   
    15   11   17 1   
    16   11   18 1   
    17   12   13 1   
    18   12   14 1   
    19   19   20 1   
    20   19   27 1   
    21   20   21 1   
    22   20   23 1   
    23   20   28 1   
    24   21   22 2   
    25   21   38 1   
    26   23   24 1   
    27   23   25 1   
    28   23   29 1   
    29   24   26 1   
    30   24   30 1   
    31   24   31 1   
    32   25   32 1   
    33   25   33 1   
    34   25   34 1   
    35   26   35 1   
    36   26   36 1   
    37   26   37 1   
    38   38   39 1   
    39   38   46 1   
    40   39   40 1   
    41   39   42 1   
    42   39   47 1   
    43   40   41 2   
    44   40   50 1   
    45   42   43 1   
    46   42   48 1   
    47   42   49 1   
    48   43   44 1   
    49   43   45 1   
    50   50   51 1   
    51   50   54 1   
    52   51   52 1   
    53   51   55 1   
    54   51   56 1   
    55   52   53 2   
    56   52   57 1   
    57   57   58 1   
    58   57   65 1   
    59   58   59 1   
    60   58   61 1   
    61   58   66 1   
    62   59   60 2   
    63   59   69 1   
    64   61   62 1   
    65   61   67 1   
    66   61   68 1   
    67   62   63 1   
    68   62   64 1   
    69   69   70 1   
    70   69   73 1   
    71   70   71 1   
    72   70   74 1   
    73   70   75 1   
    74   71   72 2   
    75   71   76 1   
    76   76   77 1   
    77   76   85 1   
    78   77   78 1   
    79   77   80 1   
    80   77   86 1   
    81   78   79 2   
    82   78   93 1   
    83   80   81 1   
    84   80   87 1   
    85   80   88 1   
    86   81   82 1   
    87   81   89 1   
    88   81   90 1   
    89   82   83 1   
    90   82   84 2   
    91   83   91 1   
    92   83   92 1   
    93   93   94 1   
    94   93  100 1   
    95   94   95 1   
    96   94   97 1   
    97   94  101 1   
    98   95   96 2   
    99   95  109 1   
   100   97   98 1   
   101   97   99 1   
   102   97  102 1   
   103   98  103 1   
   104   98  104 1   
   105   98  105 1   
   106   99  106 1   
   107   99  107 1   
   108   99  108 1   
   109  109  110 1   
   110  109  117 1   
   111  110  111 1   
   112  110  113 1   
   113  110  118 1   
   114  111  112 2   
   115  111  123 1   
   116  113  114 1   
   117  113  119 1   
   118  113  120 1   
   119  114  115 1   
   120  114  116 2   
   121  115  121 1   
   122  115  122 1   
   123  123  124 1   
   124  123  135 1   
   125  124  125 1   
   126  124  127 1   
   127  124  136 1   
   128  125  126 2   
   129  125  144 1   
   130  127  128 1   
   131  127  137 1   
   132  127  138 1   
   133  128  129 ar  
   134  128  130 ar  
   135  129  131 ar  
   136  129  139 1   
   137  130  132 ar  
   138  130  140 1   
   139  131  133 ar  
   140  131  141 1   
   141  132  133 ar  
   142  132  142 1   
   143  133  134 1   
   144  134  143 1   
   145  144  145 1   
   146  144  153 1   
   147  145  146 1   
   148  145  148 1   
   149  145  154 1   
   150  146  147 2   
   151  146  159 1   
   152  148  149 1   
   153  148  155 1   
   154  148  156 1   
   155  149  150 1   
   156  149  157 1   
   157  149  158 1   
   158  150  151 1   
   159  150  152 1   
   160  159  160 1   
   161  159  168 1   
   162  160  161 1   
   163  160  163 1   
   164  160  169 1   
   165  161  162 2   
   166  161  174 1   
   167  163  164 1   
   168  163  170 1   
   169  163  171 1   
   170  164  165 1   
   171  164  172 1   
   172  164  173 1   
   173  165  166 1   
   174  165  167 1   
   175  174  175 1   
   176  174  179 1   
   177  175  176 1   
   178  175  177 1   
   179  175  178 1   
   180  181  182 1   
   181  181  183 1   
   182  184  185 1   
   183  184  186 1   
   184  187  188 1   
   185  187  189 1   
@<TRIPOS>SUBSTRUCTURE
     1 MOL         1 TEMP              0 ****  ****    0 ROOT
