@<TRIPOS>MOLECULE
MOL
  189   185     1     0     0
SMALL
resp


@<TRIPOS>ATOM
      1 C1         -3.8240   -4.9310   -2.6360 c3        1 MOL     -0.370148
      2 C2         -4.6770   -4.0380   -1.5890 c         1 MOL      0.671795
      3 O1         -4.1410   -3.4360   -0.6510 o         1 MOL     -0.527999
      4 H1         -2.9650   -5.3670   -2.1250 hc        1 MOL      0.100045
      5 H2         -4.4540   -5.7270   -3.0320 hc        1 MOL      0.100045
      6 H3         -3.4770   -4.2990   -3.4540 hc        1 MOL      0.100045
      7 N1         -5.9160   -3.8550   -1.9400 n         1 MOL     -0.617495
      8 C3         -6.7340   -2.8020   -1.3880 c3        1 MOL      0.216679
      9 C4         -6.0240   -1.4680   -1.3790 c         1 MOL      0.135959
     10 O2         -5.6390   -0.9030   -0.3610 o         1 MOL     -0.266275
     11 C5         -7.4140   -3.1780   -0.1120 c3        1 MOL     -0.101974
     12 C6         -6.7250   -4.1130    0.8020 c         1 MOL      0.683980
     13 O3         -5.8890   -3.6980    1.6580 o         1 MOL     -0.715563
     14 O4         -7.0350   -5.3530    0.8190 o         1 MOL     -0.715563
     15 H4         -6.1490   -4.1820   -2.8710 hn        1 MOL      0.319003
     16 H5         -7.4280   -2.5470   -2.1970 h1        1 MOL      0.021220
     17 H6         -8.3930   -3.6370   -0.2820 hc        1 MOL      0.017908
     18 H7         -7.5610   -2.2680    0.4730 hc        1 MOL      0.017908
     19 N2         -5.7960   -1.0190   -2.6030 n         1 MOL     -0.196735
     20 C7         -5.3250    0.3440   -2.9800 c3        1 MOL     -0.071857
     21 C8         -6.1280    1.5560   -2.3340 c         1 MOL      0.363817
     22 O5         -6.5010    2.4440   -3.1670 o         1 MOL     -0.536429
     23 C9         -3.7910    0.3820   -2.6600 c3        1 MOL     -0.085027
     24 C10        -3.2020    1.4500   -3.5870 c3        1 MOL     -0.087055
     25 C11        -3.0880   -0.9970   -2.8820 c3        1 MOL      0.041141
     26 C12        -1.7130    1.6860   -3.5200 c3        1 MOL      0.019894
     27 H8         -6.0000   -1.6310   -3.3790 hn        1 MOL      0.233647
     28 H9         -5.4260    0.4500   -4.0590 h1        1 MOL      0.091301
     29 H10        -3.5180    0.6520   -1.6300 hc        1 MOL      0.058470
     30 H11        -3.6860    2.3910   -3.3300 hc        1 MOL      0.030044
     31 H12        -3.4980    1.2530   -4.6160 hc        1 MOL      0.030044
     32 H13        -2.0150   -0.9420   -3.0200 hc        1 MOL     -0.022816
     33 H14        -3.3020   -1.5700   -1.9680 hc        1 MOL     -0.022816
     34 H15        -3.4130   -1.5780   -3.7390 hc        1 MOL     -0.022816
     35 H16        -1.4680    2.5770   -4.0900 hc        1 MOL      0.009370
     36 H17        -1.2220    1.5510   -2.5560 hc        1 MOL      0.009370
     37 H18        -1.2720    0.9060   -4.1370 hc        1 MOL      0.009370
     38 N3         -6.4030    1.6860   -1.0210 n         1 MOL     -0.102549
     39 C13        -7.3770    2.7290   -0.5950 c3        1 MOL      0.039736
     40 C14        -6.8330    4.1720   -0.5370 c         1 MOL      0.616815
     41 O6         -7.5320    4.9840   -1.1130 o         1 MOL     -0.575970
     42 C15        -8.0790    2.4110    0.7940 c3        1 MOL     -0.428524
     43 C16        -9.1770    1.3330    0.4760 c         1 MOL      0.762733
     44 O7         -8.9450    0.1020    0.6110 o         1 MOL     -0.713840
     45 O8        -10.3650    1.6360    0.1830 o         1 MOL     -0.713840
     46 H19        -6.1190    0.9800   -0.3600 hn        1 MOL      0.196297
     47 H20        -8.1890    2.7910   -1.3220 h1        1 MOL      0.084719
     48 H21        -8.4860    3.3810    1.0860 hc        1 MOL      0.088351
     49 H22        -7.3560    2.1190    1.5560 hc        1 MOL      0.088351
     50 N4         -5.6350    4.4890    0.0420 n         1 MOL     -0.587727
     51 C17        -4.7330    3.5810    0.8300 c3        1 MOL      0.048959
     52 C18        -3.6000    4.2940    1.5260 c         1 MOL      0.592706
     53 O9         -3.4540    5.5010    1.4830 o         1 MOL     -0.557090
     54 H23        -5.3040    5.4360   -0.0720 hn        1 MOL      0.301622
     55 H24        -4.3210    2.7230    0.2920 h1        1 MOL      0.106619
     56 H25        -5.3620    3.1720    1.6160 h1        1 MOL      0.106619
     57 N5         -2.7250    3.5960    2.2770 n         1 MOL     -0.592756
     58 C19        -2.4280    2.1500    2.5420 c3        1 MOL      0.408232
     59 C20        -2.5460    1.2700    1.2720 c         1 MOL      0.011557
     60 O10        -3.5550    0.5980    1.0420 o         1 MOL     -0.651292
     61 C21        -3.4500    1.5970    3.6120 c3        1 MOL     -0.294470
     62 C22        -3.0900    0.1990    4.0970 c         1 MOL      0.836934
     63 O11        -2.6430   -0.7030    3.3240 o         1 MOL     -0.745362
     64 O12        -3.1880    0.0370    5.3560 o         1 MOL     -0.745362
     65 H26        -2.0050    4.2070    2.6310 hn        1 MOL      0.264082
     66 H27        -1.4010    2.1260    2.9030 h1        1 MOL      0.034629
     67 H28        -4.4620    1.4840    3.2090 hc        1 MOL      0.050217
     68 H29        -3.3900    2.3170    4.4320 hc        1 MOL      0.050217
     69 N6         -1.4410    0.9650    0.6050 n         1 MOL      0.008850
     70 C23        -0.0770    1.4550    0.7480 c3        1 MOL     -0.303059
     71 C24         0.1640    2.8600    0.1150 c         1 MOL      0.508065
     72 O13        -0.5620    3.4180   -0.6720 o         1 MOL     -0.479995
     73 H30        -1.5600    0.2560   -0.1050 hn        1 MOL      0.333837
     74 H31         0.5060    0.7860    0.1190 h1        1 MOL      0.132434
     75 H32         0.2890    1.4440    1.7740 h1        1 MOL      0.132434
     76 N7          1.3880    3.3980    0.2970 n         1 MOL     -0.311147
     77 C25         1.8400    4.6910   -0.2370 c3        1 MOL     -0.132036
     78 C26         2.6300    4.5210   -1.5910 c         1 MOL      0.395298
     79 O14         2.6780    5.3710   -2.4170 o         1 MOL     -0.488867
     80 C27         2.8670    5.3460    0.6740 c3        1 MOL      0.085365
     81 C28         2.1720    5.9770    1.9140 c3        1 MOL     -0.290911
     82 C29         1.3640    7.1970    1.7050 c         1 MOL      0.738785
     83 N8          0.4300    7.5000    2.5950 n         1 MOL     -0.856904
     84 O15         1.5190    7.9730    0.7540 o         1 MOL     -0.569703
     85 H33         2.0880    2.9590    0.8810 hn        1 MOL      0.231666
     86 H34         1.0070    5.3580   -0.4480 h1        1 MOL      0.176561
     87 H35         3.4790    6.0590    0.1340 hc        1 MOL      0.032127
     88 H36         3.6320    4.6160    0.9530 hc        1 MOL      0.032127
     89 H37         2.9650    6.3180    2.5830 hc        1 MOL      0.061158
     90 H38         1.7020    5.2020    2.5180 hc        1 MOL      0.061158
     91 H39         0.3120    6.8380    3.3390 hn        1 MOL      0.384404
     92 H40        -0.1850    8.3000    2.5310 hn        1 MOL      0.384404
     93 N9          3.1690    3.3150   -1.8600 n         1 MOL     -0.222858
     94 C30         3.7260    2.9610   -3.1200 c3        1 MOL     -0.181329
     95 C31         5.1400    2.3610   -3.0350 c         1 MOL      0.666675
     96 O16         5.8030    2.4200   -4.0350 o         1 MOL     -0.589093
     97 C32         2.7470    1.9900   -3.8840 c3        1 MOL      0.157233
     98 C33         1.4170    2.6840   -4.2900 c3        1 MOL     -0.198974
     99 C34         2.3730    0.8070   -3.0770 c3        1 MOL     -0.198974
    100 H41         2.9020    2.5780   -1.2180 hn        1 MOL      0.256769
    101 H42         3.7830    3.8620   -3.7200 h1        1 MOL      0.127806
    102 H43         3.2160    1.7040   -4.8170 hc        1 MOL      0.008310
    103 H44         0.9480    2.0300   -5.0280 hc        1 MOL      0.048143
    104 H45         0.8170    2.9930   -3.4430 hc        1 MOL      0.048143
    105 H46         1.6920    3.5720   -4.8530 hc        1 MOL      0.048143
    106 H47         3.1880    0.4070   -2.4790 hc        1 MOL      0.048143
    107 H48         1.6010    1.0660   -2.3550 hc        1 MOL      0.048143
    108 H49         1.9950    0.1060   -3.8260 hc        1 MOL      0.048143
    109 N10         5.6400    1.9660   -1.8660 n         1 MOL     -0.646495
    110 C35         6.9990    1.4560   -1.8080 c3        1 MOL      0.618446
    111 C36         7.0510   -0.0070   -1.4030 c         1 MOL      0.337305
    112 O17         7.8620   -0.7190   -1.9320 o         1 MOL     -0.568154
    113 C37         7.9320    2.2990   -0.9650 c3        1 MOL     -0.448543
    114 C38         7.5300    2.3280    0.5110 c         1 MOL      0.703555
    115 N11         8.3130    2.9430    1.3420 n         1 MOL     -0.773446
    116 O18         6.4350    2.0020    0.8870 o         1 MOL     -0.548521
    117 H50         5.0380    1.9970   -1.0580 hn        1 MOL      0.200898
    118 H51         7.4210    1.3950   -2.8130 h1        1 MOL     -0.024727
    119 H52         7.9810    3.2930   -1.4120 hc        1 MOL      0.101115
    120 H53         8.9450    1.9070   -1.0410 hc        1 MOL      0.101115
    121 H54         9.0630    3.4700    0.9030 hn        1 MOL      0.362671
    122 H55         8.1250    2.9960    2.3270 hn        1 MOL      0.362671
    123 N12         6.3030   -0.4420   -0.4130 n         1 MOL     -0.285977
    124 C39         6.3100   -1.8060    0.1250 c3        1 MOL      0.297173
    125 C40         4.9810   -2.4790    0.2030 c         1 MOL      0.245268
    126 O19         3.9190   -1.8470    0.1760 o         1 MOL     -0.467962
    127 C41         6.9030   -1.7030    1.5280 c3        1 MOL     -0.294459
    128 C42         8.1870   -1.0370    1.5410 ca        1 MOL      0.107023
    129 C43         9.2570   -1.6090    0.7640 ca        1 MOL     -0.183058
    130 C44         8.4700   -0.0130    2.4430 ca        1 MOL     -0.183058
    131 C45        10.5530   -1.0530    0.7590 ca        1 MOL     -0.237610
    132 C46         9.8040    0.6040    2.4030 ca        1 MOL     -0.237610
    133 C47        10.8020    0.1200    1.5430 ca        1 MOL      0.312565
    134 O20        12.0660    0.6540    1.6520 oh        1 MOL     -0.571109
    135 H56         5.6770    0.2640   -0.0420 hn        1 MOL      0.251619
    136 H57         6.9840   -2.4500   -0.4440 h1        1 MOL      0.018926
    137 H58         6.9570   -2.6480    2.0800 hc        1 MOL      0.140192
    138 H59         6.1730   -1.1610    2.1450 hc        1 MOL      0.140192
    139 H60         9.0810   -2.4870    0.1560 ha        1 MOL      0.148614
    140 H61         7.7580    0.4160    3.1370 ha        1 MOL      0.148614
    141 H62        11.3460   -1.5380    0.2070 ha        1 MOL      0.131400
    142 H63        10.0740    1.3690    3.1190 ha        1 MOL      0.131400
    143 H64        12.7540    0.3010    1.0840 ho        1 MOL      0.399305
    144 N13         5.0010   -3.7720    0.5640 n         1 MOL     -0.442450
    145 C48         3.8170   -4.5520    0.9930 c3        1 MOL      0.118723
    146 C49         2.8900   -4.8960   -0.1190 c         1 MOL      0.361905
    147 O21         2.6290   -6.0990   -0.2730 o         1 MOL     -0.551874
    148 C50         3.0780   -3.9230    2.2000 c3        1 MOL      0.166190
    149 C51         3.8860   -3.7770    3.5200 c3        1 MOL     -0.179659
    150 C52         2.9880   -3.3890    4.5860 c         1 MOL      0.645853
    151 O22         3.0670   -2.1940    4.9180 o         1 MOL     -0.710720
    152 O23         2.1350   -4.2130    4.9650 o         1 MOL     -0.710720
    153 H65         5.9300   -4.1240    0.7090 hn        1 MOL      0.268671
    154 H66         4.1880   -5.5120    1.3600 h1        1 MOL      0.028423
    155 H67         2.1530   -4.4440    2.4770 hc        1 MOL      0.058859
    156 H68         2.8220   -2.8820    1.9880 hc        1 MOL      0.058859
    157 H69         4.7460   -3.1330    3.3530 hc        1 MOL     -0.043916
    158 H70         4.2060   -4.8130    3.6460 hc        1 MOL     -0.043916
    159 N14         2.3250   -3.9430   -0.8620 n         1 MOL     -0.080137
    160 C53         1.2540   -4.2220   -1.8300 c3        1 MOL     -0.531345
    161 C54         1.7550   -4.9070   -3.1500 c         1 MOL      0.628347
    162 O24         0.9350   -5.4210   -3.8750 o         1 MOL     -0.559219
    163 C55         0.6020   -2.8850   -2.2660 c3        1 MOL      0.153221
    164 C56         0.2800   -1.8840   -1.1670 c3        1 MOL      0.429623
    165 C57        -0.4800   -2.4530    0.0880 c         1 MOL      0.340716
    166 O25        -1.4950   -1.8320    0.4370 o         1 MOL     -0.564746
    167 O26         0.0340   -3.4590    0.6450 o         1 MOL     -0.564746
    168 H71         2.3720   -3.0320   -0.4220 hn        1 MOL      0.138059
    169 H72         0.4550   -4.7910   -1.3470 h1        1 MOL      0.268831
    170 H73        -0.3270   -3.1780   -2.7480 hc        1 MOL     -0.048442
    171 H74         1.2850   -2.4460   -3.0030 hc        1 MOL     -0.048442
    172 H75        -0.1910   -1.0150   -1.6330 hc        1 MOL     -0.155353
    173 H76         1.2350   -1.4770   -0.8110 hc        1 MOL     -0.155353
    174 N15         3.0610   -4.8740   -3.4350 n         1 MOL     -0.227025
    175 C58         3.6130   -5.4870   -4.6390 c3        1 MOL     -0.171029
    176 H77         4.5670   -5.9580   -4.4010 h1        1 MOL      0.072394
    177 H78         2.9200   -6.2400   -5.0150 h1        1 MOL      0.072394
    178 H79         3.7670   -4.7220   -5.4000 h1        1 MOL      0.072394
    179 H80         3.7170   -4.6080   -2.7170 hn        1 MOL      0.202463
    180 Ca1        -3.9560   -1.9330    1.5660 Ca        1 MOL      1.721974
    181 O27        -4.8110   -2.2560    4.4560 oh        1 MOL     -0.820386
    182 H81        -4.4600   -1.5080    4.9310 ho        1 MOL      0.395240
    183 H82        -5.0720   -2.8660    5.1340 ho        1 MOL      0.395240
    184 O28        -6.1950   -0.6930    2.4260 oh        1 MOL     -0.820386
    185 H83        -6.8070   -0.3640    1.7720 ho        1 MOL      0.395240
    186 H84        -6.6980   -0.6920    3.2370 ho        1 MOL      0.395240
    187 O29        -2.8850   -4.2780    2.6380 oh        1 MOL     -0.820386
    188 H85        -2.9580   -4.3920    3.5850 ho        1 MOL      0.395240
    189 H86        -2.0370   -4.6560    2.4030 ho        1 MOL      0.395240
@<TRIPOS>BOND
     1    1    2 1   
     2    1    4 1   
     3    1    5 1   
     4    1    6 1   
     5    2    3 2   
     6    2    7 1   
     7    7    8 1   
     8    7   15 1   
     9    8    9 1   
    10    8   11 1   
    11    8   16 1   
    12    9   10 2   
    13    9   19 1   
    14   11   12 1   
    15   11   17 1   
    16   11   18 1   
    17   12   13 1   
    18   12   14 1   
    19   19   20 1   
    20   19   27 1   
    21   20   21 1   
    22   20   23 1   
    23   20   28 1   
    24   21   22 2   
    25   21   38 1   
    26   23   24 1   
    27   23   25 1   
    28   23   29 1   
    29   24   26 1   
    30   24   30 1   
    31   24   31 1   
    32   25   32 1   
    33   25   33 1   
    34   25   34 1   
    35   26   35 1   
    36   26   36 1   
    37   26   37 1   
    38   38   39 1   
    39   38   46 1   
    40   39   40 1   
    41   39   42 1   
    42   39   47 1   
    43   40   41 2   
    44   40   50 1   
    45   42   43 1   
    46   42   48 1   
    47   42   49 1   
    48   43   44 1   
    49   43   45 1   
    50   50   51 1   
    51   50   54 1   
    52   51   52 1   
    53   51   55 1   
    54   51   56 1   
    55   52   53 2   
    56   52   57 1   
    57   57   58 1   
    58   57   65 1   
    59   58   59 1   
    60   58   61 1   
    61   58   66 1   
    62   59   60 2   
    63   59   69 1   
    64   61   62 1   
    65   61   67 1   
    66   61   68 1   
    67   62   63 1   
    68   62   64 1   
    69   69   70 1   
    70   69   73 1   
    71   70   71 1   
    72   70   74 1   
    73   70   75 1   
    74   71   72 2   
    75   71   76 1   
    76   76   77 1   
    77   76   85 1   
    78   77   78 1   
    79   77   80 1   
    80   77   86 1   
    81   78   79 2   
    82   78   93 1   
    83   80   81 1   
    84   80   87 1   
    85   80   88 1   
    86   81   82 1   
    87   81   89 1   
    88   81   90 1   
    89   82   83 1   
    90   82   84 2   
    91   83   91 1   
    92   83   92 1   
    93   93   94 1   
    94   93  100 1   
    95   94   95 1   
    96   94   97 1   
    97   94  101 1   
    98   95   96 2   
    99   95  109 1   
   100   97   98 1   
   101   97   99 1   
   102   97  102 1   
   103   98  103 1   
   104   98  104 1   
   105   98  105 1   
   106   99  106 1   
   107   99  107 1   
   108   99  108 1   
   109  109  110 1   
   110  109  117 1   
   111  110  111 1   
   112  110  113 1   
   113  110  118 1   
   114  111  112 2   
   115  111  123 1   
   116  113  114 1   
   117  113  119 1   
   118  113  120 1   
   119  114  115 1   
   120  114  116 2   
   121  115  121 1   
   122  115  122 1   
   123  123  124 1   
   124  123  135 1   
   125  124  125 1   
   126  124  127 1   
   127  124  136 1   
   128  125  126 2   
   129  125  144 1   
   130  127  128 1   
   131  127  137 1   
   132  127  138 1   
   133  128  129 ar  
   134  128  130 ar  
   135  129  131 ar  
   136  129  139 1   
   137  130  132 ar  
   138  130  140 1   
   139  131  133 ar  
   140  131  141 1   
   141  132  133 ar  
   142  132  142 1   
   143  133  134 1   
   144  134  143 1   
   145  144  145 1   
   146  144  153 1   
   147  145  146 1   
   148  145  148 1   
   149  145  154 1   
   150  146  147 2   
   151  146  159 1   
   152  148  149 1   
   153  148  155 1   
   154  148  156 1   
   155  149  150 1   
   156  149  157 1   
   157  149  158 1   
   158  150  151 1   
   159  150  152 1   
   160  159  160 1   
   161  159  168 1   
   162  160  161 1   
   163  160  163 1   
   164  160  169 1   
   165  161  162 2   
   166  161  174 1   
   167  163  164 1   
   168  163  170 1   
   169  163  171 1   
   170  164  165 1   
   171  164  172 1   
   172  164  173 1   
   173  165  166 1   
   174  165  167 1   
   175  174  175 1   
   176  174  179 1   
   177  175  176 1   
   178  175  177 1   
   179  175  178 1   
   180  181  182 1   
   181  181  183 1   
   182  184  185 1   
   183  184  186 1   
   184  187  188 1   
   185  187  189 1   
@<TRIPOS>SUBSTRUCTURE
     1 MOL         1 TEMP              0 ****  ****    0 ROOT
