@<TRIPOS>MOLECULE
MOL
  197   188     1     0     0
SMALL
resp


@<TRIPOS>ATOM
      1 C1         -2.2700    0.5030   -3.6290 c3        1 MOL     -0.383717
      2 C2         -3.5740    0.5820   -2.7270 c         1 MOL      0.808817
      3 O1         -3.4830    1.2860   -1.7480 o         1 MOL     -0.595837
      4 H1         -1.4660    1.0660   -3.1560 hc        1 MOL      0.096767
      5 H2         -1.9670   -0.5390   -3.7400 hc        1 MOL      0.096767
      6 H3         -2.4810    0.9260   -4.6110 hc        1 MOL      0.096767
      7 N1         -4.5620   -0.3190   -2.9970 n         1 MOL     -0.713042
      8 C3         -5.8300   -0.3840   -2.2170 c3        1 MOL      0.309522
      9 C4         -6.2520   -1.8280   -1.8480 c         1 MOL      0.382639
     10 O2         -7.3140   -2.0210   -1.1610 o         1 MOL     -0.458516
     11 C5         -7.0210    0.4420   -2.8570 c3        1 MOL     -0.299135
     12 C6         -7.2790   -0.0860   -4.2630 c         1 MOL      0.679814
     13 O3         -6.9350   -1.2620   -4.5850 o         1 MOL     -0.685177
     14 O4         -7.8340    0.7160   -5.1190 o         1 MOL     -0.685177
     15 H4         -4.5300   -0.8920   -3.8310 hn        1 MOL      0.347509
     16 H5         -5.7690    0.0950   -1.2400 h1        1 MOL     -0.017207
     17 H6         -6.7060    1.4890   -2.9570 hc        1 MOL      0.109994
     18 H7         -7.9330    0.1820   -2.3240 hc        1 MOL      0.109994
     19 N2         -5.4090   -2.8020   -2.1140 n         1 MOL     -0.429102
     20 C7         -5.5940   -4.2300   -1.7510 c3        1 MOL      0.099127
     21 C8         -5.7760   -4.5850   -0.2340 c         1 MOL      0.345475
     22 O5         -6.5060   -5.5010    0.1620 o         1 MOL     -0.515998
     23 C9         -6.8270   -4.8880   -2.6060 c3        1 MOL     -0.084790
     24 C10        -6.6210   -4.7700   -4.1080 c3        1 MOL      0.107034
     25 C11        -7.8540   -5.3120   -4.8940 c3        1 MOL     -0.147987
     26 C12        -9.0630   -4.3350   -4.7880 c3        1 MOL     -0.054349
     27 N3         -8.8680   -3.1610   -5.7110 n4        1 MOL     -0.176417
     28 H8         -4.6350   -2.5450   -2.7130 hn        1 MOL      0.275042
     29 H9         -4.6700   -4.7540   -1.9710 h1        1 MOL      0.077529
     30 H10        -7.8000   -4.4610   -2.3520 hc        1 MOL      0.053351
     31 H11        -6.8250   -5.9550   -2.3830 hc        1 MOL      0.053351
     32 H12        -5.7470   -5.3390   -4.4300 hc        1 MOL     -0.022669
     33 H13        -6.5370   -3.6850   -4.2670 hc        1 MOL     -0.022669
     34 H14        -8.1310   -6.2490   -4.4140 hc        1 MOL      0.068943
     35 H15        -7.5400   -5.5440   -5.9110 hc        1 MOL      0.068943
     36 H16        -9.1090   -3.9730   -3.7660 hx        1 MOL      0.100872
     37 H17        -9.9510   -4.9020   -5.0560 hx        1 MOL      0.100872
     38 H18        -9.6330   -2.5120   -5.6110 hn        1 MOL      0.264300
     39 H19        -8.1250   -2.5280   -5.4450 hn        1 MOL      0.264300
     40 H20        -8.7010   -3.2860   -6.6880 hn        1 MOL      0.264300
     41 N4         -5.0200   -3.8290    0.5320 n         1 MOL     -0.075289
     42 C13        -5.0820   -3.8790    2.0140 c3        1 MOL      0.102212
     43 C14        -5.1890   -2.4150    2.5260 c         1 MOL      0.425111
     44 O6         -4.7310   -2.1480    3.6280 o         1 MOL     -0.510438
     45 C15        -3.8570   -4.5880    2.5720 c3        1 MOL     -0.323731
     46 C16        -2.5480   -4.0300    2.0520 c         1 MOL      0.495071
     47 O7         -1.8010   -4.8400    1.3880 o         1 MOL     -0.602430
     48 O8         -2.2940   -2.7810    2.1040 o         1 MOL     -0.602430
     49 H21        -4.4100   -3.1500    0.0910 hn        1 MOL      0.175572
     50 H22        -5.9450   -4.4190    2.3890 h1        1 MOL      0.093474
     51 H23        -3.8980   -5.6360    2.2730 hc        1 MOL      0.107719
     52 H24        -3.8410   -4.5850    3.6630 hc        1 MOL      0.107719
     53 N5         -5.8880   -1.5060    1.7380 n         1 MOL     -0.379778
     54 C17        -6.0390   -0.1010    2.2120 c3        1 MOL      0.156146
     55 C18        -7.0900    0.6380    1.3830 c         1 MOL      0.539071
     56 O9         -8.0410    0.0480    0.8440 o         1 MOL     -0.537212
     57 H25        -6.4680   -1.8470    0.9810 hn        1 MOL      0.201913
     58 H26        -5.1470    0.5290    2.1800 h1        1 MOL      0.002878
     59 H27        -6.3460   -0.1540    3.2590 h1        1 MOL      0.002878
     60 N6         -7.1090    1.9420    1.2160 n         1 MOL     -0.385245
     61 C19        -6.3890    2.8990    2.0190 c3        1 MOL     -0.022834
     62 C20        -6.1790    4.2000    1.1300 c         1 MOL      0.564298
     63 O10        -7.0710    5.0130    0.8760 o         1 MOL     -0.522108
     64 C21        -7.1490    3.1480    3.3210 c3        1 MOL     -0.369590
     65 C22        -6.6840    4.2590    4.2510 c         1 MOL      0.629573
     66 N7         -7.4270    4.4930    5.3320 n         1 MOL     -0.737915
     67 O11        -5.6720    5.0050    4.1160 o         1 MOL     -0.536541
     68 H28        -7.7470    2.2720    0.4990 hn        1 MOL      0.287726
     69 H29        -5.3610    2.5340    2.1430 h1        1 MOL      0.101589
     70 H30        -7.3730    2.2410    3.8740 hc        1 MOL      0.143149
     71 H31        -8.1510    3.4470    3.0260 hc        1 MOL      0.143149
     72 H32        -8.2110    3.9270    5.6160 hn        1 MOL      0.349303
     73 H33        -6.9640    5.1190    5.9830 hn        1 MOL      0.349303
     74 N8         -4.9640    4.3900    0.5510 n         1 MOL     -0.451210
     75 C23        -3.7370    3.5420    0.7200 c3        1 MOL     -0.093336
     76 C24        -2.4990    4.1660   -0.0990 c         1 MOL      0.793873
     77 O12        -2.8080    4.9250   -1.0040 o         1 MOL     -0.535947
     78 H34        -4.9410    5.1380   -0.1180 hn        1 MOL      0.308455
     79 H35        -3.9520    2.5700    0.2720 h1        1 MOL      0.059569
     80 H36        -3.5100    3.4170    1.7740 h1        1 MOL      0.059569
     81 N9         -1.2810    3.8840    0.3490 n         1 MOL     -0.799208
     82 C25         0.0400    4.3550   -0.2350 c3        1 MOL      0.338188
     83 C26         1.1540    3.2320   -0.2310 c         1 MOL      0.343666
     84 O13         1.1840    2.2850    0.5990 o         1 MOL     -0.450940
     85 C27         0.4620    5.6750    0.4410 c3        1 MOL     -0.118719
     86 C28         1.2790    6.5650   -0.5090 ca        1 MOL     -0.010270
     87 C29         2.7040    6.6100   -0.3020 ca        1 MOL     -0.104981
     88 C30         0.6830    7.4800   -1.3770 ca        1 MOL     -0.104981
     89 C31         3.4620    7.4820   -1.0550 ca        1 MOL     -0.341145
     90 C32         1.5220    8.2890   -2.2000 ca        1 MOL     -0.341145
     91 C33         2.8550    8.3030   -1.9850 ca        1 MOL      0.441905
     92 O14         3.6280    9.0810   -2.7030 oh        1 MOL     -0.485908
     93 H37        -1.2140    3.3170    1.1790 hn        1 MOL      0.345546
     94 H38        -0.2130    4.5980   -1.2660 h1        1 MOL      0.014418
     95 H39         1.1100    5.4690    1.2830 hc        1 MOL      0.064036
     96 H40        -0.3490    6.2900    0.8360 hc        1 MOL      0.064036
     97 H41         3.2180    5.9870    0.4140 ha        1 MOL      0.132066
     98 H42        -0.4000    7.4880   -1.3790 ha        1 MOL      0.132066
     99 H43         4.5420    7.5690   -0.9610 ha        1 MOL      0.159729
    100 H44         1.0030    8.8380   -2.9710 ha        1 MOL      0.159729
    101 H45         3.0350    9.6120   -3.2340 ho        1 MOL      0.360978
    102 N10         2.0850    3.3050   -1.1540 n         1 MOL     -0.176893
    103 C34         3.2310    2.4050   -1.3320 c3        1 MOL     -0.324313
    104 C35         4.1390    2.4100   -0.0950 c         1 MOL      0.402763
    105 O15         4.1430    3.3820    0.6610 o         1 MOL     -0.500138
    106 C36         4.0350    2.8130   -2.6240 c3        1 MOL      0.245234
    107 C37         4.7330    4.1840   -2.4550 c3        1 MOL      0.107406
    108 C38         4.9940    1.7070   -3.0830 c3        1 MOL     -0.443294
    109 C39         5.5290    4.6010   -3.7030 c3        1 MOL     -0.259617
    110 H46         1.9360    4.0000   -1.8720 hn        1 MOL      0.199693
    111 H47         2.8730    1.4110   -1.6120 h1        1 MOL      0.163500
    112 H48         3.2770    3.0040   -3.3860 hc        1 MOL      0.012411
    113 H49         5.3850    4.2600   -1.5800 hc        1 MOL      0.023232
    114 H50         3.9440    4.9150   -2.2970 hc        1 MOL      0.023232
    115 H51         4.5350    0.7210   -3.0350 hc        1 MOL      0.115811
    116 H52         5.3510    1.8740   -4.0940 hc        1 MOL      0.115811
    117 H53         5.9420    1.7330   -2.5520 hc        1 MOL      0.115811
    118 H54         6.2730    3.8760   -4.0420 hc        1 MOL      0.061003
    119 H55         4.8740    4.9750   -4.4830 hc        1 MOL      0.061003
    120 H56         6.1380    5.4630   -3.4570 hc        1 MOL      0.061003
    121 N11         4.8570    1.3480    0.0970 n         1 MOL     -0.239654
    122 C40         5.9600    1.3140    1.1690 c3        1 MOL     -0.024569
    123 C41         6.1040   -0.1110    1.5830 c         1 MOL      0.448725
    124 O16         5.7460   -1.0030    0.8060 o         1 MOL     -0.397262
    125 C42         7.3290    1.8800    0.6730 c3        1 MOL     -0.249055
    126 O17         7.8870    1.0520   -0.2310 oh        1 MOL     -0.372343
    127 H57         4.6800    0.4820   -0.3830 hn        1 MOL      0.240227
    128 H58         5.5720    1.8230    2.0480 h1        1 MOL      0.095489
    129 H59         8.0240    2.0330    1.4940 h1        1 MOL      0.145538
    130 H60         7.0840    2.7900    0.1170 h1        1 MOL      0.145538
    131 H61         8.8150    1.0520    0.0610 ho        1 MOL      0.375938
    132 N12         6.7150   -0.4280    2.7420 n         1 MOL     -0.427481
    133 C43         6.8540   -1.7190    3.4380 c3        1 MOL      0.252603
    134 C44         7.7430   -2.6460    2.5510 c         1 MOL      0.373357
    135 O18         7.4690   -3.8290    2.1810 o         1 MOL     -0.426405
    136 C45         5.5410   -2.3110    3.7740 c3        1 MOL     -0.422574
    137 H62         6.8850    0.4100    3.2870 hn        1 MOL      0.241898
    138 H63         7.3960   -1.6090    4.3780 h1        1 MOL      0.052870
    139 H64         5.0680   -1.6200    4.4660 hc        1 MOL      0.118982
    140 H65         4.9160   -2.2980    2.8820 hc        1 MOL      0.118982
    141 H66         5.6620   -3.3280    4.1710 hc        1 MOL      0.118982
    142 N13         8.8570   -2.0910    2.1260 n         1 MOL     -0.496783
    143 C46         9.8880   -2.5530    1.2360 c3        1 MOL      0.316158
    144 C47         9.4650   -2.7470   -0.2170 c         1 MOL      0.112303
    145 O19        10.2410   -3.2440   -1.0220 o         1 MOL     -0.444651
    146 C48        10.5970   -3.8030    1.8210 c3        1 MOL      0.020365
    147 H67         8.9390   -1.1530    2.5000 hn        1 MOL      0.233056
    148 H68        10.7460   -1.8820    1.2780 h1        1 MOL      0.013004
    149 H69         9.9170   -4.6190    2.0490 hc        1 MOL      0.009025
    150 H70        11.3990   -4.1350    1.1680 hc        1 MOL      0.009025
    151 H71        11.0480   -3.5170    2.7740 hc        1 MOL      0.009025
    152 N14         8.2110   -2.4360   -0.6130 n         1 MOL      0.067102
    153 C49         7.5960   -2.6550   -1.9290 c3        1 MOL     -0.052773
    154 C50         8.2920   -2.0660   -3.1280 c         1 MOL      0.366103
    155 O20         8.4330   -2.8000   -4.1190 o         1 MOL     -0.474695
    156 C51         6.0640   -2.4200   -1.8320 c3        1 MOL      0.057889
    157 C52         5.2450   -3.1380   -2.8630 c3        1 MOL     -0.260756
    158 C53         5.1530   -4.6520   -2.7770 c         1 MOL      0.739553
    159 O21         5.4250   -5.2380   -1.7010 o         1 MOL     -0.672574
    160 O22         4.6460   -5.2320   -3.7500 o         1 MOL     -0.672574
    161 H72         7.5890   -2.1030    0.1100 hn        1 MOL     -0.041237
    162 H73         7.7110   -3.7310   -2.0910 h1        1 MOL      0.130193
    163 H74         5.8930   -1.3420   -1.8570 hc        1 MOL      0.049204
    164 H75         5.7860   -2.7680   -0.8400 hc        1 MOL      0.049204
    165 H76         5.5470   -2.7940   -3.8500 hc        1 MOL      0.022348
    166 H77         4.2630   -2.7080   -2.6440 hc        1 MOL      0.022348
    167 N15         8.7500   -0.8020   -3.0650 n         1 MOL     -0.166311
    168 C54         9.7410   -0.2970   -4.0540 c3        1 MOL     -0.065041
    169 H78        10.5490    0.2120   -3.5300 h1        1 MOL      0.054971
    170 H79        10.1480   -1.1340   -4.6220 h1        1 MOL      0.054971
    171 H80         9.2540    0.4020   -4.7350 h1        1 MOL      0.054971
    172 H81         8.5140   -0.1760   -2.3070 hn        1 MOL      0.094166
    173 Ca1        -0.3510   -1.5960    3.3280 Ca        1 MOL      1.728088
    174 O23         2.2450   -1.1180    2.2550 oh        1 MOL     -0.801458
    175 H82         2.7200   -1.7060    1.6680 ho        1 MOL      0.385622
    176 H83         2.9330   -0.6180    2.7040 ho        1 MOL      0.385622
    177 O24        -1.2740   -3.2430    5.2030 oh        1 MOL     -0.801458
    178 H84        -2.1850   -3.4830    5.3380 ho        1 MOL      0.385622
    179 H85        -0.7810   -3.8100    5.7920 ho        1 MOL      0.385622
    180 O25        -0.2140   -0.3980    5.8800 oh        1 MOL     -0.801458
    181 H86        -0.4030   -0.8830    6.6890 ho        1 MOL      0.385622
    182 H87         0.5040    0.1770    6.1200 ho        1 MOL      0.385622
    183 O26        -0.5720   -0.5110    0.7520 oh        1 MOL     -0.801458
    184 H88        -0.3230    0.4110    0.8360 ho        1 MOL      0.385622
    185 H89         0.0520   -0.8630    0.1220 ho        1 MOL      0.385622
    186 O27         0.4590   -3.8140    2.3180 oh        1 MOL     -0.801458
    187 H90         1.0080   -4.5880    2.2730 ho        1 MOL      0.385622
    188 H91        -0.3200   -4.0330    1.8100 ho        1 MOL      0.385622
    189 O28         1.7480   -2.4630    5.0560 oh        1 MOL     -0.801458
    190 H92         2.5760   -2.2010    5.4530 ho        1 MOL      0.385622
    191 H93         1.3310   -3.0180    5.7210 ho        1 MOL      0.385622
    192 O29         0.2360    1.0240    2.9900 oh        1 MOL     -0.801458
    193 H94        -0.2790    1.6920    3.4520 ho        1 MOL      0.385622
    194 H95         0.8860    1.5100    2.4980 ho        1 MOL      0.385622
    195 O30        -2.5890   -0.3860    4.2120 oh        1 MOL     -0.801458
    196 H96        -3.2660   -1.0150    3.9770 ho        1 MOL      0.385622
    197 H97        -2.9590    0.0880    4.9620 ho        1 MOL      0.385622
@<TRIPOS>BOND
     1    1    2 1   
     2    1    4 1   
     3    1    5 1   
     4    1    6 1   
     5    2    3 2   
     6    2    7 1   
     7    7    8 1   
     8    7   15 1   
     9    8    9 1   
    10    8   11 1   
    11    8   16 1   
    12    9   10 2   
    13    9   19 1   
    14   11   12 1   
    15   11   17 1   
    16   11   18 1   
    17   12   13 1   
    18   12   14 1   
    19   19   20 1   
    20   19   28 1   
    21   20   21 1   
    22   20   23 1   
    23   20   29 1   
    24   21   22 2   
    25   21   41 1   
    26   23   24 1   
    27   23   30 1   
    28   23   31 1   
    29   24   25 1   
    30   24   32 1   
    31   24   33 1   
    32   25   26 1   
    33   25   34 1   
    34   25   35 1   
    35   26   27 1   
    36   26   36 1   
    37   26   37 1   
    38   27   38 1   
    39   27   39 1   
    40   27   40 1   
    41   41   42 1   
    42   41   49 1   
    43   42   43 1   
    44   42   45 1   
    45   42   50 1   
    46   43   44 2   
    47   43   53 1   
    48   45   46 1   
    49   45   51 1   
    50   45   52 1   
    51   46   47 1   
    52   46   48 1   
    53   53   54 1   
    54   53   57 1   
    55   54   55 1   
    56   54   58 1   
    57   54   59 1   
    58   55   56 2   
    59   55   60 1   
    60   60   61 1   
    61   60   68 1   
    62   61   62 1   
    63   61   64 1   
    64   61   69 1   
    65   62   63 2   
    66   62   74 1   
    67   64   65 1   
    68   64   70 1   
    69   64   71 1   
    70   65   66 1   
    71   65   67 2   
    72   66   72 1   
    73   66   73 1   
    74   74   75 1   
    75   74   78 1   
    76   75   76 1   
    77   75   79 1   
    78   75   80 1   
    79   76   77 2   
    80   76   81 1   
    81   81   82 1   
    82   81   93 1   
    83   82   83 1   
    84   82   85 1   
    85   82   94 1   
    86   83   84 2   
    87   83  102 1   
    88   85   86 1   
    89   85   95 1   
    90   85   96 1   
    91   86   87 ar  
    92   86   88 ar  
    93   87   89 ar  
    94   87   97 1   
    95   88   90 ar  
    96   88   98 1   
    97   89   91 ar  
    98   89   99 1   
    99   90   91 ar  
   100   90  100 1   
   101   91   92 1   
   102   92  101 1   
   103  102  103 1   
   104  102  110 1   
   105  103  104 1   
   106  103  106 1   
   107  103  111 1   
   108  104  105 2   
   109  104  121 1   
   110  106  107 1   
   111  106  108 1   
   112  106  112 1   
   113  107  109 1   
   114  107  113 1   
   115  107  114 1   
   116  108  115 1   
   117  108  116 1   
   118  108  117 1   
   119  109  118 1   
   120  109  119 1   
   121  109  120 1   
   122  121  122 1   
   123  121  127 1   
   124  122  123 1   
   125  122  125 1   
   126  122  128 1   
   127  123  124 2   
   128  123  132 1   
   129  125  126 1   
   130  125  129 1   
   131  125  130 1   
   132  126  131 1   
   133  132  133 1   
   134  132  137 1   
   135  133  134 1   
   136  133  136 1   
   137  133  138 1   
   138  134  135 2   
   139  134  142 1   
   140  136  139 1   
   141  136  140 1   
   142  136  141 1   
   143  142  143 1   
   144  142  147 1   
   145  143  144 1   
   146  143  146 1   
   147  143  148 1   
   148  144  145 2   
   149  144  152 1   
   150  146  149 1   
   151  146  150 1   
   152  146  151 1   
   153  152  153 1   
   154  152  161 1   
   155  153  154 1   
   156  153  156 1   
   157  153  162 1   
   158  154  155 2   
   159  154  167 1   
   160  156  157 1   
   161  156  163 1   
   162  156  164 1   
   163  157  158 1   
   164  157  165 1   
   165  157  166 1   
   166  158  159 1   
   167  158  160 1   
   168  167  168 1   
   169  167  172 1   
   170  168  169 1   
   171  168  170 1   
   172  168  171 1   
   173  174  175 1   
   174  174  176 1   
   175  177  178 1   
   176  177  179 1   
   177  180  181 1   
   178  180  182 1   
   179  183  184 1   
   180  183  185 1   
   181  186  187 1   
   182  186  188 1   
   183  189  190 1   
   184  189  191 1   
   185  192  193 1   
   186  192  194 1   
   187  195  196 1   
   188  195  197 1   
@<TRIPOS>SUBSTRUCTURE
     1 MOL         1 TEMP              0 ****  ****    0 ROOT
