@<TRIPOS>MOLECULE
MOL
  189   185     1     0     0
SMALL
resp


@<TRIPOS>ATOM
      1 C1          4.1590    4.2000   -3.7380 c3        1 MOL     -0.477195
      2 C2          4.9920    3.5340   -2.5660 c         1 MOL      0.890731
      3 O1          4.5890    3.3920   -1.4240 o         1 MOL     -0.685848
      4 H1          3.4450    3.4770   -4.1310 hc        1 MOL      0.116952
      5 H2          3.6240    5.0690   -3.3560 hc        1 MOL      0.116952
      6 H3          4.8360    4.5110   -4.5340 hc        1 MOL      0.116952
      7 N1          6.2320    3.1580   -2.9210 n         1 MOL     -0.719967
      8 C3          7.0560    2.0480   -2.3450 c3        1 MOL      0.386286
      9 C4          6.1880    0.9310   -1.8790 c         1 MOL      0.412556
     10 O2          5.9280    0.7210   -0.6780 o         1 MOL     -0.624553
     11 C5          8.1620    2.5350   -1.3730 c3        1 MOL     -0.348540
     12 C6          7.5760    3.5210   -0.2740 c         1 MOL      0.791328
     13 O3          6.8190    3.1260    0.6200 o         1 MOL     -0.727757
     14 O4          8.0690    4.6980   -0.2540 o         1 MOL     -0.727757
     15 H4          6.5600    3.4580   -3.8310 hn        1 MOL      0.318115
     16 H5          7.6920    1.6760   -3.1480 h1        1 MOL     -0.007306
     17 H6          9.0130    3.0020   -1.8820 hc        1 MOL      0.072515
     18 H7          8.4590    1.6430   -0.8270 hc        1 MOL      0.072515
     19 N2          5.8170    0.1710   -2.9060 n         1 MOL     -0.615905
     20 C7          5.0780   -1.1610   -2.8710 c3        1 MOL      0.284575
     21 C8          5.7560   -2.3180   -2.1580 c         1 MOL      0.233829
     22 O5          5.7330   -3.4320   -2.7410 o         1 MOL     -0.513492
     23 C9          3.6150   -0.9870   -2.5380 c3        1 MOL      0.547216
     24 C10         2.8850   -2.3320   -2.7190 c3        1 MOL     -0.568965
     25 C11         2.9110    0.0850   -3.3660 c3        1 MOL     -0.236337
     26 C12         2.6830   -2.8900   -4.1580 c3        1 MOL     -0.115950
     27 H8          6.0120    0.4720   -3.8450 hn        1 MOL      0.285348
     28 H9          5.1150   -1.5680   -3.8770 h1        1 MOL     -0.004368
     29 H10         3.4770   -0.6890   -1.4880 hc        1 MOL     -0.149496
     30 H11         1.8340   -2.2330   -2.4440 hc        1 MOL      0.210777
     31 H12         3.3510   -3.1100   -2.1240 hc        1 MOL      0.210777
     32 H13         1.8320   -0.0170   -3.2580 hc        1 MOL      0.029702
     33 H14         3.2510    1.0540   -3.0070 hc        1 MOL      0.029702
     34 H15         3.2620   -0.0450   -4.3910 hc        1 MOL      0.029702
     35 H16         3.7140   -2.8990   -4.5150 hc        1 MOL      0.024946
     36 H17         2.2790   -3.9010   -4.2150 hc        1 MOL      0.024946
     37 H18         2.0460   -2.2850   -4.8140 hc        1 MOL      0.024946
     38 N3          6.0770   -2.0700   -0.8970 n         1 MOL     -0.032030
     39 C13         6.9460   -3.0370   -0.1480 c3        1 MOL     -0.183310
     40 C14         6.3400   -4.4380    0.1710 c         1 MOL      0.594099
     41 O6          7.0260   -5.4790    0.1640 o         1 MOL     -0.538930
     42 C15         7.4680   -2.3940    1.1040 c3        1 MOL     -0.240154
     43 C16         8.4390   -3.1960    1.9470 c         1 MOL      0.817767
     44 O7          8.4670   -3.0240    3.1790 o         1 MOL     -0.750929
     45 O8          9.4180   -3.6890    1.3820 o         1 MOL     -0.750929
     46 H19         5.8000   -1.1730   -0.5110 hn        1 MOL      0.278168
     47 H20         7.7610   -3.2760   -0.8260 h1        1 MOL      0.098443
     48 H21         6.5930   -1.9620    1.5830 hc        1 MOL      0.078937
     49 H22         8.0820   -1.5500    0.7830 hc        1 MOL      0.078937
     50 N4          5.0430   -4.6780    0.5240 n         1 MOL     -0.624740
     51 C17         4.0320   -3.7120    1.0430 c3        1 MOL      0.274956
     52 C18         4.3210   -3.3160    2.4780 c         1 MOL      0.338594
     53 O9          5.2450   -3.8320    3.1290 o         1 MOL     -0.471523
     54 H23         4.9020   -5.6480    0.7590 hn        1 MOL      0.318703
     55 H24         3.0220   -4.1070    0.9080 h1        1 MOL     -0.015579
     56 H25         3.9580   -2.8700    0.3570 h1        1 MOL     -0.015579
     57 N5          3.6040   -2.3530    3.0400 n         1 MOL     -0.322950
     58 C19         2.3010   -1.8030    2.5110 c3        1 MOL      0.019711
     59 C20         2.3280   -0.8730    1.2070 c         1 MOL      0.004090
     60 O10         3.3900   -0.4820    0.8320 o         1 MOL     -0.381588
     61 C21         1.8330   -0.9140    3.6910 c3        1 MOL     -0.368087
     62 C22         2.7980    0.2400    4.0890 c         1 MOL      0.840793
     63 O11         2.8340    1.2670    3.4080 o         1 MOL     -0.709727
     64 O12         3.4710    0.1030    5.1120 o         1 MOL     -0.709727
     65 H26         3.9750   -2.1220    3.9540 hn        1 MOL      0.281201
     66 H27         1.6920   -2.6420    2.1800 h1        1 MOL      0.052154
     67 H28         1.7970   -1.5790    4.5500 hc        1 MOL      0.092991
     68 H29         0.8020   -0.5790    3.6340 hc        1 MOL      0.092991
     69 N6          1.1520   -0.6300    0.5210 n         1 MOL      0.067070
     70 C23        -0.1820   -1.1290    0.9590 c3        1 MOL      0.000614
     71 C24        -0.5480   -2.4340    0.2260 c         1 MOL      0.593543
     72 O13         0.0100   -2.8260   -0.7760 o         1 MOL     -0.511373
     73 H30         1.2590   -0.0780   -0.3130 hn        1 MOL      0.084117
     74 H31        -0.9970   -0.4270    0.8080 h1        1 MOL      0.060282
     75 H32        -0.2020   -1.2890    2.0340 h1        1 MOL      0.060282
     76 N7         -1.5880   -3.1400    0.7190 n         1 MOL     -0.475060
     77 C25        -2.0880   -4.4200    0.1190 c3        1 MOL     -0.060067
     78 C26        -2.8550   -4.3020   -1.1510 c         1 MOL      0.454483
     79 O14        -2.9760   -5.3060   -1.8640 o         1 MOL     -0.536125
     80 C27        -2.6170   -5.3390    1.2240 c3        1 MOL      0.072087
     81 C28        -3.7430   -4.6430    2.0890 c3        1 MOL     -0.543381
     82 C29        -4.9540   -4.1360    1.2340 c         1 MOL      0.697361
     83 N8         -5.8160   -5.0170    0.9220 n         1 MOL     -0.738777
     84 O15        -5.0310   -2.9980    0.8170 o         1 MOL     -0.585286
     85 H33        -1.8470   -2.8390    1.6470 hn        1 MOL      0.293854
     86 H34        -1.2030   -4.9630   -0.1900 h1        1 MOL      0.129775
     87 H35        -1.8020   -5.5150    1.9300 hc        1 MOL      0.041679
     88 H36        -2.9990   -6.3110    0.9070 hc        1 MOL      0.041679
     89 H37        -3.3860   -3.7550    2.6070 hc        1 MOL      0.159351
     90 H38        -4.1170   -5.4260    2.7430 hc        1 MOL      0.159351
     91 H39        -5.6340   -5.9800    1.1490 hn        1 MOL      0.351628
     92 H40        -6.4720   -4.8300    0.1810 hn        1 MOL      0.351628
     93 N9         -3.2350   -3.0810   -1.5550 n         1 MOL     -0.236244
     94 C30        -3.6400   -2.7420   -2.9960 c3        1 MOL     -0.150635
     95 C31        -5.0960   -2.1400   -3.1270 c         1 MOL      0.517508
     96 O16        -5.5540   -2.1050   -4.2620 o         1 MOL     -0.554890
     97 C32        -2.5970   -1.8730   -3.7050 c3        1 MOL      0.295998
     98 C33        -1.2940   -2.5770   -3.9700 c3        1 MOL     -0.320013
     99 C34        -2.2670   -0.5910   -2.9880 c3        1 MOL     -0.320013
    100 H41        -3.2950   -2.4060   -0.8110 hn        1 MOL      0.093154
    101 H42        -3.7340   -3.6520   -3.6010 h1        1 MOL      0.122719
    102 H43        -2.9780   -1.5630   -4.6720 hc        1 MOL     -0.030354
    103 H44        -0.5020   -1.9500   -4.3930 hc        1 MOL      0.082894
    104 H45        -0.9940   -3.0060   -3.0190 hc        1 MOL      0.082894
    105 H46        -1.5290   -3.3890   -4.6580 hc        1 MOL      0.082894
    106 H47        -1.5730   -0.0590   -3.6270 hc        1 MOL      0.082894
    107 H48        -3.2400   -0.1240   -2.8190 hc        1 MOL      0.082894
    108 H49        -1.7620   -0.8610   -2.0560 hc        1 MOL      0.082894
    109 N10        -5.7600   -1.7100   -2.0200 n         1 MOL     -0.416212
    110 C35        -7.1560   -1.3780   -1.9360 c3        1 MOL     -0.027199
    111 C36        -7.3390    0.0340   -1.3470 c         1 MOL      0.423942
    112 O17        -8.5180    0.4610   -1.2170 o         1 MOL     -0.551775
    113 C37        -7.9280   -2.4340   -1.1330 c3        1 MOL      0.010919
    114 C38        -7.7210   -3.8950   -1.7020 c         1 MOL      0.531119
    115 N11        -7.5120   -4.1020   -2.9560 n         1 MOL     -0.702306
    116 O18        -7.6750   -4.8960   -0.9120 o         1 MOL     -0.566317
    117 H50        -5.2780   -1.6390   -1.1400 hn        1 MOL      0.498111
    118 H51        -7.5330   -1.4520   -2.9590 h1        1 MOL      0.074773
    119 H52        -9.0010   -2.3450   -1.3180 hc        1 MOL      0.009733
    120 H53        -7.6740   -2.3710   -0.0700 hc        1 MOL      0.009733
    121 H54        -7.6680   -3.3600   -3.6170 hn        1 MOL      0.373175
    122 H55        -7.2460   -5.0450   -3.2060 hn        1 MOL      0.373175
    123 N12        -6.3390    0.8060   -0.9160 n         1 MOL     -0.158549
    124 C39        -6.4180    2.1820   -0.2810 c3        1 MOL     -0.108652
    125 C40        -5.1020    2.8690    0.1170 c         1 MOL      0.622855
    126 O19        -4.0950    2.2070    0.1080 o         1 MOL     -0.391172
    127 C41        -7.3180    2.0230    0.9550 c3        1 MOL     -0.049689
    128 C42        -7.0280    0.8510    1.9410 ca        1 MOL      0.084836
    129 C43        -7.8290   -0.2720    1.8470 ca        1 MOL     -0.214122
    130 C44        -5.8870    0.8190    2.7020 ca        1 MOL     -0.214122
    131 C45        -7.4970   -1.4220    2.5860 ca        1 MOL     -0.109412
    132 C46        -5.5580   -0.2810    3.5710 ca        1 MOL     -0.109412
    133 C47        -6.3940   -1.4240    3.4310 ca        1 MOL      0.139557
    134 O20        -6.0900   -2.5110    4.1830 oh        1 MOL     -0.410689
    135 H56        -5.4280    0.3810   -0.9550 hn        1 MOL      0.069215
    136 H57        -6.9260    2.7990   -1.0240 h1        1 MOL      0.077618
    137 H58        -8.3870    1.9700    0.7330 hc        1 MOL      0.066048
    138 H59        -7.4990    2.9070    1.5650 hc        1 MOL      0.066048
    139 H60        -8.7850   -0.2450    1.3620 ha        1 MOL      0.108313
    140 H61        -5.2120    1.6560    2.6240 ha        1 MOL      0.108313
    141 H62        -8.0640   -2.3450    2.5780 ha        1 MOL      0.148694
    142 H63        -4.6690   -0.2800    4.1860 ha        1 MOL      0.148694
    143 H64        -6.7190   -3.2300    4.0240 ho        1 MOL      0.288799
    144 N13        -5.0980    4.1680    0.4950 n         1 MOL     -0.764017
    145 C48        -3.9750    4.9110    1.0800 c3        1 MOL      0.315104
    146 C49        -2.8200    5.1570    0.1620 c         1 MOL      0.183406
    147 O21        -2.1710    6.2250    0.3180 o         1 MOL     -0.472547
    148 C50        -3.4950    4.4880    2.4680 c3        1 MOL     -0.224066
    149 C51        -4.5860    4.6570    3.4720 c3        1 MOL     -0.206498
    150 C52        -4.2260    4.1640    4.8740 c         1 MOL      0.716018
    151 O22        -4.6600    3.0990    5.2860 o         1 MOL     -0.710940
    152 O23        -3.6180    4.8940    5.6550 o         1 MOL     -0.710940
    153 H65        -5.9960    4.6150    0.5790 hn        1 MOL      0.359867
    154 H66        -4.3770    5.9230    1.2250 h1        1 MOL      0.064947
    155 H67        -2.5890    5.0480    2.7110 hc        1 MOL      0.131948
    156 H68        -3.2130    3.4380    2.4920 hc        1 MOL      0.131948
    157 H69        -5.5140    4.2060    3.1230 hc        1 MOL      0.016421
    158 H70        -4.9150    5.7000    3.3860 hc        1 MOL      0.016421
    159 N14        -2.5880    4.2650   -0.8310 n         1 MOL     -0.275727
    160 C53        -1.3830    4.4670   -1.7190 c3        1 MOL     -0.033854
    161 C54        -1.7270    5.3150   -2.9190 c         1 MOL      0.435137
    162 O24        -0.8050    5.9010   -3.5970 o         1 MOL     -0.534552
    163 C55        -0.8520    3.1110   -2.2020 c3        1 MOL     -0.043386
    164 C56        -0.3900    2.1180   -1.0650 c3        1 MOL      0.332876
    165 C57         0.7050    2.5700   -0.0890 c         1 MOL      0.419985
    166 O25         0.3780    3.3690    0.8230 o         1 MOL     -0.587172
    167 O26         1.8400    2.0740   -0.1160 o         1 MOL     -0.587172
    168 H71        -3.1300    3.4160   -0.8390 hn        1 MOL      0.221006
    169 H72        -0.5630    4.9090   -1.1610 h1        1 MOL      0.175886
    170 H73        -0.0670    3.2390   -2.9470 hc        1 MOL     -0.004444
    171 H74        -1.7100    2.6130   -2.6560 hc        1 MOL     -0.004444
    172 H75        -0.0380    1.2300   -1.5980 hc        1 MOL     -0.109130
    173 H76        -1.2700    1.7780   -0.5070 hc        1 MOL     -0.109130
    174 N15        -3.0220    5.5960   -3.2870 n         1 MOL     -0.221456
    175 C58        -3.5620    6.4350   -4.4020 c3        1 MOL     -0.189850
    176 H77        -4.3460    5.8840   -4.9240 h1        1 MOL      0.087465
    177 H78        -3.9770    7.3580   -3.9960 h1        1 MOL      0.087465
    178 H79        -2.7600    6.6730   -5.1010 h1        1 MOL      0.087465
    179 H80        -3.7080    4.9040   -3.0050 hn        1 MOL      0.200269
    180 Ca1         4.3380    1.9820    1.0360 Ca        1 MOL      1.766366
    181 O27         5.2730    3.3390    3.2270 oh        1 MOL     -0.787298
    182 H81         5.1350    2.9110    4.0720 ho        1 MOL      0.376531
    183 H82         6.2220    3.3100    3.1000 ho        1 MOL      0.376531
    184 O28         5.6240    0.4110    2.6680 oh        1 MOL     -0.787298
    185 H83         6.3820   -0.1410    2.8280 ho        1 MOL      0.376531
    186 H84         5.2440    0.5510    3.5380 ho        1 MOL      0.376531
    187 O29         2.9120    4.0870    1.6020 oh        1 MOL     -0.787298
    188 H85         2.8950    5.0010    1.8870 ho        1 MOL      0.376531
    189 H86         2.0300    3.9100    1.3020 ho        1 MOL      0.376531
@<TRIPOS>BOND
     1    1    2 1   
     2    1    4 1   
     3    1    5 1   
     4    1    6 1   
     5    2    3 2   
     6    2    7 1   
     7    7    8 1   
     8    7   15 1   
     9    8    9 1   
    10    8   11 1   
    11    8   16 1   
    12    9   10 2   
    13    9   19 1   
    14   11   12 1   
    15   11   17 1   
    16   11   18 1   
    17   12   13 1   
    18   12   14 1   
    19   19   20 1   
    20   19   27 1   
    21   20   21 1   
    22   20   23 1   
    23   20   28 1   
    24   21   22 2   
    25   21   38 1   
    26   23   24 1   
    27   23   25 1   
    28   23   29 1   
    29   24   26 1   
    30   24   30 1   
    31   24   31 1   
    32   25   32 1   
    33   25   33 1   
    34   25   34 1   
    35   26   35 1   
    36   26   36 1   
    37   26   37 1   
    38   38   39 1   
    39   38   46 1   
    40   39   40 1   
    41   39   42 1   
    42   39   47 1   
    43   40   41 2   
    44   40   50 1   
    45   42   43 1   
    46   42   48 1   
    47   42   49 1   
    48   43   44 1   
    49   43   45 1   
    50   50   51 1   
    51   50   54 1   
    52   51   52 1   
    53   51   55 1   
    54   51   56 1   
    55   52   53 2   
    56   52   57 1   
    57   57   58 1   
    58   57   65 1   
    59   58   59 1   
    60   58   61 1   
    61   58   66 1   
    62   59   60 2   
    63   59   69 1   
    64   61   62 1   
    65   61   67 1   
    66   61   68 1   
    67   62   63 1   
    68   62   64 1   
    69   69   70 1   
    70   69   73 1   
    71   70   71 1   
    72   70   74 1   
    73   70   75 1   
    74   71   72 2   
    75   71   76 1   
    76   76   77 1   
    77   76   85 1   
    78   77   78 1   
    79   77   80 1   
    80   77   86 1   
    81   78   79 2   
    82   78   93 1   
    83   80   81 1   
    84   80   87 1   
    85   80   88 1   
    86   81   82 1   
    87   81   89 1   
    88   81   90 1   
    89   82   83 1   
    90   82   84 2   
    91   83   91 1   
    92   83   92 1   
    93   93   94 1   
    94   93  100 1   
    95   94   95 1   
    96   94   97 1   
    97   94  101 1   
    98   95   96 2   
    99   95  109 1   
   100   97   98 1   
   101   97   99 1   
   102   97  102 1   
   103   98  103 1   
   104   98  104 1   
   105   98  105 1   
   106   99  106 1   
   107   99  107 1   
   108   99  108 1   
   109  109  110 1   
   110  109  117 1   
   111  110  111 1   
   112  110  113 1   
   113  110  118 1   
   114  111  112 2   
   115  111  123 1   
   116  113  114 1   
   117  113  119 1   
   118  113  120 1   
   119  114  115 1   
   120  114  116 2   
   121  115  121 1   
   122  115  122 1   
   123  123  124 1   
   124  123  135 1   
   125  124  125 1   
   126  124  127 1   
   127  124  136 1   
   128  125  126 2   
   129  125  144 1   
   130  127  128 1   
   131  127  137 1   
   132  127  138 1   
   133  128  129 ar  
   134  128  130 ar  
   135  129  131 ar  
   136  129  139 1   
   137  130  132 ar  
   138  130  140 1   
   139  131  133 ar  
   140  131  141 1   
   141  132  133 ar  
   142  132  142 1   
   143  133  134 1   
   144  134  143 1   
   145  144  145 1   
   146  144  153 1   
   147  145  146 1   
   148  145  148 1   
   149  145  154 1   
   150  146  147 2   
   151  146  159 1   
   152  148  149 1   
   153  148  155 1   
   154  148  156 1   
   155  149  150 1   
   156  149  157 1   
   157  149  158 1   
   158  150  151 1   
   159  150  152 1   
   160  159  160 1   
   161  159  168 1   
   162  160  161 1   
   163  160  163 1   
   164  160  169 1   
   165  161  162 2   
   166  161  174 1   
   167  163  164 1   
   168  163  170 1   
   169  163  171 1   
   170  164  165 1   
   171  164  172 1   
   172  164  173 1   
   173  165  166 1   
   174  165  167 1   
   175  174  175 1   
   176  174  179 1   
   177  175  176 1   
   178  175  177 1   
   179  175  178 1   
   180  181  182 1   
   181  181  183 1   
   182  184  185 1   
   183  184  186 1   
   184  187  188 1   
   185  187  189 1   
@<TRIPOS>SUBSTRUCTURE
     1 MOL         1 TEMP              0 ****  ****    0 ROOT
