@<TRIPOS>MOLECULE
MOL
  186   183     1     0     0
SMALL
resp


@<TRIPOS>ATOM
      1 C1        -11.8670    4.6960    3.6790 c3        1 MOL     -0.413881
      2 C2        -11.7480    3.8040    2.4230 c         1 MOL      0.557899
      3 O1        -12.2480    2.6250    2.4410 o         1 MOL     -0.574706
      4 H1        -11.3630    5.6460    3.4980 hc        1 MOL      0.112057
      5 H2        -12.9190    4.8790    3.8980 hc        1 MOL      0.112057
      6 H3        -11.4010    4.1940    4.5270 hc        1 MOL      0.112057
      7 N1        -11.1490    4.2210    1.3100 n         1 MOL     -0.003359
      8 C3        -11.1350    3.3780    0.1160 c3        1 MOL     -0.635652
      9 C4        -10.1130    2.2830    0.1620 c         1 MOL      0.381560
     10 O2         -9.1260    2.4260    0.8970 o         1 MOL     -0.468358
     11 C5        -10.9740    4.2230   -1.1140 c3        1 MOL      0.138125
     12 C6         -9.8190    5.2940   -1.0670 c         1 MOL      0.781421
     13 O3         -9.1260    5.5170   -0.0150 o         1 MOL     -0.752592
     14 O4         -9.6270    6.0020   -2.0510 o         1 MOL     -0.752592
     15 H4        -10.9390    5.1930    1.1910 hn        1 MOL      0.128239
     16 H5        -12.0850    2.8430    0.0120 h1        1 MOL      0.186421
     17 H6        -11.8880    4.8160   -1.1130 hc        1 MOL      0.054221
     18 H7        -10.8990    3.5890   -1.9980 hc        1 MOL      0.054221
     19 N2        -10.3460    1.1470   -0.5030 n         1 MOL     -0.165655
     20 C7         -9.4920   -0.0960   -0.4780 c3        1 MOL     -0.002166
     21 C8         -8.1650    0.0270   -1.2180 c         1 MOL      0.400269
     22 O5         -7.8750   -0.6720   -2.1720 o         1 MOL     -0.491995
     23 C9        -10.2900   -1.3760   -0.9410 c3        1 MOL      0.051535
     24 C10       -11.3540   -1.8040    0.0750 c3        1 MOL      0.006499
     25 C11       -12.0620   -3.0740   -0.4690 c3        1 MOL     -0.267190
     26 C12       -11.1510   -4.3560   -0.7550 c3        1 MOL      0.098781
     27 N3        -12.0440   -5.4230   -1.2120 n4        1 MOL     -0.357725
     28 H8        -11.2890    1.0930   -0.8760 hn        1 MOL      0.220945
     29 H9         -9.1020   -0.1150    0.5450 h1        1 MOL      0.050968
     30 H10        -9.6690   -2.2540   -1.1170 hc        1 MOL      0.034390
     31 H11       -10.8450   -1.2060   -1.8550 hc        1 MOL      0.034390
     32 H12       -12.0440   -1.0180    0.3790 hc        1 MOL      0.034064
     33 H13       -10.7990   -2.0380    0.9820 hc        1 MOL      0.034064
     34 H14       -12.6200   -2.8260   -1.3660 hc        1 MOL      0.084017
     35 H15       -12.8300   -3.3470    0.2520 hc        1 MOL      0.084017
     36 H16       -10.6150   -4.7730    0.0980 hx        1 MOL      0.111201
     37 H17       -10.4250   -4.0630   -1.5160 hx        1 MOL      0.111201
     38 H18       -12.6420   -5.8060   -0.4910 hn        1 MOL      0.317769
     39 H19       -12.5810   -5.2140   -2.0450 hn        1 MOL      0.317769
     40 H20       -11.5530   -6.2310   -1.5880 hn        1 MOL      0.317769
     41 N4         -7.3800    0.9650   -0.6590 n         1 MOL      0.036560
     42 C13        -5.9250    1.1980   -0.9150 c3        1 MOL     -0.512587
     43 C14        -5.2280    1.8460    0.3480 c         1 MOL      0.394127
     44 O6         -5.8420    2.7750    0.9600 o         1 MOL     -0.644183
     45 C15        -5.8560    2.0640   -2.2280 c3        1 MOL     -0.595256
     46 C16        -6.7760    3.3170   -2.3140 c         1 MOL      0.938792
     47 O7         -7.7900    3.2570   -3.0850 o         1 MOL     -0.735873
     48 O8         -6.3850    4.3090   -1.6520 o         1 MOL     -0.735873
     49 H21        -7.8950    1.5580   -0.0120 hn        1 MOL      0.199845
     50 H22        -5.4230    0.2430   -1.0400 h1        1 MOL      0.299394
     51 H23        -6.1670    1.4050   -3.0350 hc        1 MOL      0.198284
     52 H24        -4.8820    2.4300   -2.5300 hc        1 MOL      0.198284
     53 N5         -3.9510    1.4960    0.7060 n         1 MOL     -0.040739
     54 C17        -3.0210    0.5080    0.1320 c3        1 MOL     -0.432615
     55 C18        -3.7070   -0.8650    0.1020 c         1 MOL      0.800224
     56 O9         -4.5200   -1.1050    0.9760 o         1 MOL     -0.574896
     57 H25        -3.6220    2.1250    1.4240 hn        1 MOL      0.193741
     58 H26        -2.0420    0.4850    0.6110 h1        1 MOL      0.144987
     59 H27        -2.9320    0.8820   -0.8900 h1        1 MOL      0.144987
     60 N6         -3.4310   -1.7040   -0.9060 n         1 MOL     -0.515931
     61 C19        -3.9190   -3.1260   -1.0360 c3        1 MOL     -0.043232
     62 C20        -2.8680   -4.0810   -1.6460 c         1 MOL      0.509502
     63 O10        -1.8490   -3.6670   -2.2350 o         1 MOL     -0.520378
     64 C21        -5.2120   -3.0100   -1.9110 c3        1 MOL     -0.132218
     65 C22        -6.0350   -4.2440   -1.8100 c         1 MOL      0.642089
     66 O11        -6.3910   -4.5890   -0.6410 o         1 MOL     -0.725494
     67 O12        -6.2780   -4.8950   -2.8820 o         1 MOL     -0.725494
     68 H28        -2.9110   -1.3460   -1.6910 hn        1 MOL      0.282738
     69 H29        -4.1780   -3.4180   -0.0240 h1        1 MOL      0.076165
     70 H30        -5.0390   -2.7910   -2.9660 hc        1 MOL      0.058944
     71 H31        -5.8700   -2.2070   -1.5830 hc        1 MOL      0.058944
     72 N7         -2.9800   -5.3690   -1.3200 n         1 MOL     -0.246225
     73 C23        -1.9740   -6.4090   -1.4900 c3        1 MOL     -0.164154
     74 C24        -0.7490   -6.1880   -0.5940 c         1 MOL      0.528109
     75 O13         0.2130   -6.9670   -0.6090 o         1 MOL     -0.543367
     76 H32        -3.8210   -5.6140   -0.8160 hn        1 MOL      0.243001
     77 H33        -1.6200   -6.4230   -2.5240 h1        1 MOL      0.116032
     78 H34        -2.4090   -7.3920   -1.3570 h1        1 MOL      0.116032
     79 N8         -0.8040   -5.2150    0.3600 n         1 MOL     -0.277357
     80 C25         0.3290   -4.6300    1.1790 c3        1 MOL     -0.009059
     81 C26         0.4690   -3.0990    1.0710 c         1 MOL      0.597041
     82 O14        -0.5130   -2.3980    0.7770 o         1 MOL     -0.538328
     83 C27         0.2040   -5.0050    2.6850 c3        1 MOL      0.198070
     84 C28        -1.1310   -4.4890    3.3160 c3        1 MOL     -0.332340
     85 O15         0.1940   -6.4110    2.7130 oh        1 MOL     -0.546418
     86 H35        -1.6630   -4.7100    0.4740 hn        1 MOL      0.215972
     87 H36         1.2250   -5.1160    0.7850 h1        1 MOL      0.055476
     88 H37         1.0630   -4.5190    3.1660 h1        1 MOL      0.003550
     89 H38         0.8810   -6.6520    3.3280 ho        1 MOL      0.377960
     90 H39        -1.4310   -3.5060    2.9610 hc        1 MOL      0.097656
     91 H40        -1.8990   -5.2350    3.1140 hc        1 MOL      0.097656
     92 H41        -1.0660   -4.4990    4.3970 hc        1 MOL      0.097656
     93 N9          1.7000   -2.5880    1.1630 n         1 MOL     -0.441160
     94 C29         2.1150   -1.1860    0.8940 c3        1 MOL     -0.080011
     95 C30         3.5270   -1.1260    0.1720 c         1 MOL      0.532108
     96 O16         3.8740   -0.1300   -0.5310 o         1 MOL     -0.496040
     97 C31         2.1900   -0.3080    2.1670 c3        1 MOL      0.075621
     98 C32         1.0950   -0.5950    3.1750 c3        1 MOL      0.087142
     99 C33         2.2510    1.2090    1.8740 c3        1 MOL     -0.122577
    100 C34         1.0170    0.1400    4.5200 c3        1 MOL     -0.263013
    101 H42         2.4690   -3.2210    1.3420 hn        1 MOL      0.240734
    102 H43         1.2780   -0.7320    0.3580 h1        1 MOL      0.119905
    103 H44         3.0860   -0.5490    2.7290 hc        1 MOL     -0.014397
    104 H45         1.1800   -1.6270    3.5290 hc        1 MOL      0.019809
    105 H46         0.0800   -0.5030    2.7870 hc        1 MOL      0.019809
    106 H47         1.3250    1.3550    1.3150 hc        1 MOL      0.037789
    107 H48         2.2210    1.8290    2.7780 hc        1 MOL      0.037789
    108 H49         3.0250    1.5310    1.1750 hc        1 MOL      0.037789
    109 H50         1.2510    1.2000    4.4290 hc        1 MOL      0.061813
    110 H51        -0.0270    0.1190    4.8310 hc        1 MOL      0.061813
    111 H52         1.6170   -0.3060    5.3030 hc        1 MOL      0.061813
    112 N10         4.4360   -2.1090    0.4470 n         1 MOL     -0.444287
    113 C35         5.7600   -2.2940   -0.2250 c3        1 MOL     -0.037469
    114 C36         6.8720   -2.6360    0.7580 c         1 MOL      0.672934
    115 O17         6.5920   -2.8850    1.9440 o         1 MOL     -0.528469
    116 C37         5.6910   -3.3740   -1.4000 c3        1 MOL      0.295461
    117 C38         5.2350   -4.7510   -1.0080 c3        1 MOL     -0.229345
    118 O18         4.8070   -2.9270   -2.4980 oh        1 MOL     -0.559744
    119 H53         4.2220   -2.7460    1.2000 hn        1 MOL      0.273388
    120 H54         6.0920   -1.3630   -0.6820 h1        1 MOL      0.095335
    121 H55         6.7210   -3.5010   -1.7100 h1        1 MOL     -0.032282
    122 H56         5.0780   -2.0400   -2.7720 ho        1 MOL      0.381710
    123 H57         4.1920   -4.6430   -0.6910 hc        1 MOL      0.077011
    124 H58         5.2710   -5.4440   -1.8400 hc        1 MOL      0.077011
    125 H59         5.7420   -5.0990   -0.1160 hc        1 MOL      0.077011
    126 N11         8.1650   -2.6490    0.3250 n         1 MOL     -0.652518
    127 C39         9.2900   -2.7990    1.2180 c3        1 MOL     -0.018130
    128 C40         9.9860   -1.4210    1.3180 c         1 MOL      0.645301
    129 O19        10.5610   -1.1380    2.3400 o         1 MOL     -0.566099
    130 C41        10.3060   -3.8080    0.7800 c3        1 MOL      0.539391
    131 C42        11.4150   -4.1640    1.7290 c3        1 MOL     -0.500943
    132 O20        10.9020   -3.6260   -0.4230 oh        1 MOL     -0.646046
    133 H60         8.3860   -2.4810   -0.6430 hn        1 MOL      0.296307
    134 H61         8.9350   -3.0910    2.2010 h1        1 MOL      0.105906
    135 H62         9.7370   -4.7260    0.6690 h1        1 MOL     -0.053344
    136 H63        10.4060   -4.2340   -0.9620 ho        1 MOL      0.389710
    137 H64        12.2300   -3.4420    1.6160 hc        1 MOL      0.127554
    138 H65        10.9870   -4.1610    2.7330 hc        1 MOL      0.127554
    139 H66        11.8320   -5.1490    1.5040 hc        1 MOL      0.127554
    140 N12         9.9980   -0.5860    0.2530 n         1 MOL     -0.472028
    141 C43        10.6100    0.7860    0.1660 c3        1 MOL     -0.041302
    142 C44         9.7990    1.7410   -0.7290 c         1 MOL      0.443268
    143 O21         9.4900    1.4440   -1.8880 o         1 MOL     -0.505611
    144 C45        12.1160    0.6790   -0.2700 c3        1 MOL     -0.243021
    145 C46        12.6700    2.1090   -0.4390 c3        1 MOL      0.014247
    146 C47        14.1530    2.2830   -0.7780 c3        1 MOL     -0.055859
    147 C48        14.5780    1.2160   -1.8320 c3        1 MOL      0.151073
    148 N13        16.0840    1.2130   -2.0340 n4        1 MOL     -0.369344
    149 H67         9.5630   -0.8840   -0.6110 hn        1 MOL      0.274879
    150 H68        10.6780    1.2400    1.1620 h1        1 MOL      0.091692
    151 H69        12.1980    0.2170   -1.2570 hc        1 MOL      0.098415
    152 H70        12.6330    0.1580    0.5360 hc        1 MOL      0.098415
    153 H71        12.5020    2.5410    0.5570 hc        1 MOL      0.072834
    154 H72        12.0810    2.5890   -1.2190 hc        1 MOL      0.072834
    155 H73        14.6980    2.2000    0.1500 hc        1 MOL      0.040395
    156 H74        14.2570    3.2740   -1.2250 hc        1 MOL      0.040395
    157 H75        14.0480    1.3830   -2.7690 hx        1 MOL      0.057279
    158 H76        14.4290    0.1970   -1.4900 hx        1 MOL      0.057279
    159 H77        16.4030    0.3960   -2.5360 hn        1 MOL      0.290917
    160 H78        16.4560    1.9750   -2.5860 hn        1 MOL      0.290917
    161 H79        16.5260    1.1520   -1.1290 hn        1 MOL      0.290917
    162 N14         9.5120    2.8960   -0.1860 n         1 MOL     -0.293677
    163 C49         8.9540    4.0790   -0.9960 c3        1 MOL      0.059823
    164 C50         7.3380    4.0140   -0.9230 c         1 MOL      0.438561
    165 O22         6.7180    3.9880   -1.9870 o         1 MOL     -0.519616
    166 C51         9.7410    5.4070   -0.7790 c3        1 MOL      0.162541
    167 C52        11.2200    5.3600   -0.6430 c3        1 MOL     -0.210474
    168 C53        11.7350    6.7410   -0.3920 c         1 MOL      0.709369
    169 O23        12.2900    7.3180   -1.3460 o         1 MOL     -0.686891
    170 O24        11.5460    7.2740    0.6880 o         1 MOL     -0.686891
    171 H80         9.8970    3.1210    0.7150 hn        1 MOL      0.263179
    172 H81         9.1210    3.8560   -2.0440 h1        1 MOL      0.053192
    173 H82         9.2920    5.8150    0.1210 hc        1 MOL      0.002052
    174 H83         9.5110    6.1290   -1.5710 hc        1 MOL      0.002052
    175 H84        11.6470    4.8620   -1.5050 hc        1 MOL     -0.016381
    176 H85        11.5130    4.6860    0.1620 hc        1 MOL     -0.016381
    177 N15         6.6360    4.0260    0.2140 n         1 MOL     -0.409888
    178 C54         7.1290    4.2360    1.6390 c3        1 MOL     -0.041527
    179 H86         7.4320    5.2750    1.7690 h1        1 MOL      0.051847
    180 H87         6.3270    4.0020    2.3390 h1        1 MOL      0.051847
    181 H88         7.9810    3.5830    1.8300 h1        1 MOL      0.051847
    182 H89         5.6390    3.8610    0.1490 hn        1 MOL      0.309263
    183 Ca1        -6.6680    5.3450    0.7120 Ca        1 MOL      1.691712
    184 O25        -7.9570    4.0080    2.6300 oh        1 MOL     -0.960609
    185 H90        -8.4670    3.3650    2.1300 ho        1 MOL      0.453703
    186 H91        -7.8910    3.6150    3.5010 ho        1 MOL      0.453703
@<TRIPOS>BOND
     1    1    2 1   
     2    1    4 1   
     3    1    5 1   
     4    1    6 1   
     5    2    3 2   
     6    2    7 1   
     7    7    8 1   
     8    7   15 1   
     9    8    9 1   
    10    8   11 1   
    11    8   16 1   
    12    9   10 2   
    13    9   19 1   
    14   11   12 1   
    15   11   17 1   
    16   11   18 1   
    17   12   13 1   
    18   12   14 1   
    19   19   20 1   
    20   19   28 1   
    21   20   21 1   
    22   20   23 1   
    23   20   29 1   
    24   21   22 2   
    25   21   41 1   
    26   23   24 1   
    27   23   30 1   
    28   23   31 1   
    29   24   25 1   
    30   24   32 1   
    31   24   33 1   
    32   25   26 1   
    33   25   34 1   
    34   25   35 1   
    35   26   27 1   
    36   26   36 1   
    37   26   37 1   
    38   27   38 1   
    39   27   39 1   
    40   27   40 1   
    41   41   42 1   
    42   41   49 1   
    43   42   43 1   
    44   42   45 1   
    45   42   50 1   
    46   43   44 2   
    47   43   53 1   
    48   45   46 1   
    49   45   51 1   
    50   45   52 1   
    51   46   47 1   
    52   46   48 1   
    53   53   54 1   
    54   53   57 1   
    55   54   55 1   
    56   54   58 1   
    57   54   59 1   
    58   55   56 2   
    59   55   60 1   
    60   60   61 1   
    61   60   68 1   
    62   61   62 1   
    63   61   64 1   
    64   61   69 1   
    65   62   63 2   
    66   62   72 1   
    67   64   65 1   
    68   64   70 1   
    69   64   71 1   
    70   65   66 1   
    71   65   67 1   
    72   72   73 1   
    73   72   76 1   
    74   73   74 1   
    75   73   77 1   
    76   73   78 1   
    77   74   75 2   
    78   74   79 1   
    79   79   80 1   
    80   79   86 1   
    81   80   81 1   
    82   80   83 1   
    83   80   87 1   
    84   81   82 2   
    85   81   93 1   
    86   83   84 1   
    87   83   85 1   
    88   83   88 1   
    89   84   90 1   
    90   84   91 1   
    91   84   92 1   
    92   85   89 1   
    93   93   94 1   
    94   93  101 1   
    95   94   95 1   
    96   94   97 1   
    97   94  102 1   
    98   95   96 2   
    99   95  112 1   
   100   97   98 1   
   101   97   99 1   
   102   97  103 1   
   103   98  100 1   
   104   98  104 1   
   105   98  105 1   
   106   99  106 1   
   107   99  107 1   
   108   99  108 1   
   109  100  109 1   
   110  100  110 1   
   111  100  111 1   
   112  112  113 1   
   113  112  119 1   
   114  113  114 1   
   115  113  116 1   
   116  113  120 1   
   117  114  115 2   
   118  114  126 1   
   119  116  117 1   
   120  116  118 1   
   121  116  121 1   
   122  117  123 1   
   123  117  124 1   
   124  117  125 1   
   125  118  122 1   
   126  126  127 1   
   127  126  133 1   
   128  127  128 1   
   129  127  130 1   
   130  127  134 1   
   131  128  129 2   
   132  128  140 1   
   133  130  131 1   
   134  130  132 1   
   135  130  135 1   
   136  131  137 1   
   137  131  138 1   
   138  131  139 1   
   139  132  136 1   
   140  140  141 1   
   141  140  149 1   
   142  141  142 1   
   143  141  144 1   
   144  141  150 1   
   145  142  143 2   
   146  142  162 1   
   147  144  145 1   
   148  144  151 1   
   149  144  152 1   
   150  145  146 1   
   151  145  153 1   
   152  145  154 1   
   153  146  147 1   
   154  146  155 1   
   155  146  156 1   
   156  147  148 1   
   157  147  157 1   
   158  147  158 1   
   159  148  159 1   
   160  148  160 1   
   161  148  161 1   
   162  162  163 1   
   163  162  171 1   
   164  163  164 1   
   165  163  166 1   
   166  163  172 1   
   167  164  165 2   
   168  164  177 1   
   169  166  167 1   
   170  166  173 1   
   171  166  174 1   
   172  167  168 1   
   173  167  175 1   
   174  167  176 1   
   175  168  169 1   
   176  168  170 1   
   177  177  178 1   
   178  177  182 1   
   179  178  179 1   
   180  178  180 1   
   181  178  181 1   
   182  184  185 1   
   183  184  186 1   
@<TRIPOS>SUBSTRUCTURE
     1 MOL         1 TEMP              0 ****  ****    0 ROOT
