@<TRIPOS>MOLECULE
MOL
  182   178     1     0     0
SMALL
resp


@<TRIPOS>ATOM
      1 C1          0.6190   -4.0800    5.8820 c3        1 MOL     -0.426010
      2 C2          0.8040   -3.8750    4.3600 c         1 MOL      0.778547
      3 O1         -0.1760   -3.8740    3.6240 o         1 MOL     -0.616234
      4 H1          1.5580   -4.4190    6.3180 hc        1 MOL      0.118845
      5 H2          0.3240   -3.1370    6.3420 hc        1 MOL      0.118845
      6 H3         -0.1540   -4.8280    6.0570 hc        1 MOL      0.118845
      7 N1          2.0000   -3.5070    3.9540 n         1 MOL     -0.650019
      8 C3          2.2570   -3.1450    2.5880 c3        1 MOL      0.072993
      9 C4          2.4410   -4.3710    1.6810 c         1 MOL      0.655651
     10 O2          3.0930   -5.3580    2.0690 o         1 MOL     -0.547431
     11 C5          3.4430   -2.2060    2.6710 c3        1 MOL     -0.118645
     12 C6          3.5590   -1.2880    1.4070 c         1 MOL      0.470915
     13 O3          4.0340   -0.1760    1.5300 o         1 MOL     -0.627377
     14 O4          3.3320   -1.7950    0.2600 o         1 MOL     -0.627377
     15 H4          2.6390   -3.1940    4.6750 hn        1 MOL      0.349983
     16 H5          1.4450   -2.5420    2.1700 h1        1 MOL     -0.101449
     17 H6          4.3850   -2.7590    2.7320 hc        1 MOL      0.072908
     18 H7          3.2600   -1.6130    3.5700 hc        1 MOL      0.072908
     19 N2          1.9670   -4.2260    0.3890 n         1 MOL     -0.354384
     20 C7          2.2490   -5.3040   -0.5570 c3        1 MOL     -0.045126
     21 C8          3.4340   -5.1030   -1.5170 c         1 MOL      0.489313
     22 O5          3.7950   -6.1230   -2.1650 o         1 MOL     -0.552450
     23 C9          1.0230   -5.4120   -1.4550 c3        1 MOL     -0.006010
     24 C10        -0.2150   -6.2170   -0.9260 c3        1 MOL      0.138507
     25 C11        -1.3610   -6.1150   -1.8710 c3        1 MOL      0.014314
     26 C12        -2.4900   -7.1840   -1.6790 c3        1 MOL      0.069210
     27 N3         -3.4960   -7.0690   -2.7210 n4        1 MOL     -0.234115
     28 H8          1.7050   -3.3160    0.0440 hn        1 MOL      0.256036
     29 H9          2.4930   -6.2400   -0.0550 h1        1 MOL      0.121065
     30 H10         1.3340   -5.9870   -2.3270 hc        1 MOL     -0.016481
     31 H11         0.7490   -4.3990   -1.7380 hc        1 MOL     -0.016481
     32 H12        -0.5110   -5.7570    0.0140 hc        1 MOL     -0.015982
     33 H13         0.1650   -7.2220   -0.7130 hc        1 MOL     -0.015982
     34 H14        -0.9770   -6.2850   -2.8710 hc        1 MOL     -0.001991
     35 H15        -1.8620   -5.1550   -1.7870 hc        1 MOL     -0.001991
     36 H16        -2.9080   -7.0020   -0.6910 hx        1 MOL      0.057403
     37 H17        -1.9270   -8.1200   -1.6080 hx        1 MOL      0.057403
     38 H18        -3.9250   -6.1650   -2.8270 hn        1 MOL      0.253994
     39 H19        -3.0430   -7.2450   -3.6120 hn        1 MOL      0.253994
     40 H20        -4.2770   -7.6890   -2.5990 hn        1 MOL      0.253994
     41 N4          4.1270   -3.8970   -1.5360 n         1 MOL     -0.309212
     42 C13         5.4130   -3.7400   -2.1970 c3        1 MOL      0.221241
     43 C14         6.4940   -3.2260   -1.2630 c         1 MOL      0.210364
     44 O6          7.6770   -3.2340   -1.6420 o         1 MOL     -0.451244
     45 C15         5.2190   -2.7330   -3.3690 c3        1 MOL     -0.409879
     46 C16         4.4820   -1.4480   -2.8840 c         1 MOL      0.881833
     47 O7          4.9760   -0.7320   -2.0040 o         1 MOL     -0.787958
     48 O8          3.2860   -1.2220   -3.3330 o         1 MOL     -0.787958
     49 H21         3.8070   -3.1430   -0.9450 hn        1 MOL      0.124608
     50 H22         5.8360   -4.6580   -2.5890 h1        1 MOL      0.094885
     51 H23         4.5410   -3.1900   -4.0860 hc        1 MOL      0.107591
     52 H24         6.2170   -2.5260   -3.7490 hc        1 MOL      0.107591
     53 N5          6.0990   -2.6210   -0.0840 n         1 MOL      0.002739
     54 C17         7.0160   -2.0430    0.9410 c3        1 MOL     -0.283028
     55 C18         7.4740   -0.5570    0.7140 c         1 MOL      0.713216
     56 O9          8.3950   -0.1850    1.4150 o         1 MOL     -0.583735
     57 H25         5.1240   -2.6360    0.1760 hn        1 MOL      0.074367
     58 H26         8.0200   -2.4680    0.9550 h1        1 MOL      0.112449
     59 H27         6.4960   -2.2540    1.8820 h1        1 MOL      0.112449
     60 N6          6.8780    0.2030   -0.1310 n         1 MOL     -0.456237
     61 C19         7.3270    1.5930   -0.4940 c3        1 MOL     -0.031456
     62 C20         6.1200    2.4740   -0.6720 c         1 MOL      0.773783
     63 O10         4.9870    2.0080   -0.7660 o         1 MOL     -0.605160
     64 C21         8.2950    1.5070   -1.7050 c3        1 MOL     -0.446233
     65 C22         9.4700    0.6670   -1.2940 c         1 MOL      0.692108
     66 N7         10.2120    1.1510   -0.3180 n         1 MOL     -0.810277
     67 O11         9.7260   -0.3940   -1.8070 o         1 MOL     -0.518937
     68 H28         6.1120   -0.1790   -0.6640 hn        1 MOL      0.455692
     69 H29         7.8270    1.9900    0.3770 h1        1 MOL      0.038242
     70 H30         8.6350    2.4870   -2.0370 hc        1 MOL      0.128175
     71 H31         7.7590    0.9730   -2.4860 hc        1 MOL      0.128175
     72 H32         9.9650    2.0580    0.0590 hn        1 MOL      0.381552
     73 H33        11.0330    0.6340   -0.0540 hn        1 MOL      0.381552
     74 N8          6.3940    3.7600   -0.7560 n         1 MOL     -0.480655
     75 C23         5.3260    4.7020   -1.0510 c3        1 MOL     -0.138311
     76 C24         4.3610    4.9370    0.1120 c         1 MOL      0.519417
     77 O12         4.7250    4.9870    1.3120 o         1 MOL     -0.522642
     78 H34         7.3380    4.0840   -0.6610 hn        1 MOL      0.331641
     79 H35         4.9030    4.5260   -2.0390 h1        1 MOL      0.096501
     80 H36         5.8350    5.6640   -1.1540 h1        1 MOL      0.096501
     81 N9          3.1060    4.8010   -0.1260 n         1 MOL     -0.422960
     82 C25         2.0300    4.6120    0.8570 c3        1 MOL      0.227993
     83 C26         1.7940    3.0320    1.1980 c         1 MOL      0.399835
     84 O13         2.5490    2.1470    0.7330 o         1 MOL     -0.401098
     85 C27         0.7720    5.2600    0.2300 c3        1 MOL     -0.073551
     86 C28         0.6550    6.7490   -0.1150 ca        1 MOL     -0.035351
     87 C29         0.8770    7.6310    0.9200 ca        1 MOL     -0.071715
     88 C30         0.4820    7.2310   -1.4340 ca        1 MOL     -0.071715
     89 C31         0.7910    8.9880    0.7030 ca        1 MOL     -0.274176
     90 C32         0.4350    8.6050   -1.6640 ca        1 MOL     -0.274176
     91 C33         0.5900    9.5070   -0.5800 ca        1 MOL      0.354999
     92 O14         0.5160   10.8890   -0.7900 oh        1 MOL     -0.496486
     93 H37         2.8770    4.7790   -1.1120 hn        1 MOL      0.218267
     94 H38         2.2500    5.2230    1.7280 h1        1 MOL      0.052047
     95 H39        -0.1070    5.0490    0.8470 hc        1 MOL      0.021346
     96 H40         0.5570    4.7390   -0.7120 hc        1 MOL      0.021346
     97 H41         0.7820    7.2850    1.9350 ha        1 MOL      0.102994
     98 H42         0.1470    6.4960   -2.1480 ha        1 MOL      0.102994
     99 H43         0.7750    9.6500    1.5510 ha        1 MOL      0.156477
    100 H44         0.1450    8.8890   -2.6690 ha        1 MOL      0.156477
    101 H45         0.2870   11.3780    0.0080 ho        1 MOL      0.370493
    102 N10         0.7100    2.8310    2.0030 n         1 MOL     -0.656929
    103 C34         0.1550    1.5590    2.5150 c3        1 MOL      0.293118
    104 C35        -0.1590    0.5420    1.3990 c         1 MOL      0.075730
    105 O15         0.7060    0.1740    0.6300 o         1 MOL     -0.167464
    106 C36         0.9900    0.9670    3.7110 c3        1 MOL      0.123926
    107 C37         0.2320   -0.2130    4.4920 c3        1 MOL     -0.001309
    108 C38         1.5760    2.0740    4.6270 c3        1 MOL     -0.540684
    109 C39        -0.8920    0.3120    5.4260 c3        1 MOL     -0.488870
    110 H46         0.2310    3.6550    2.3370 hn        1 MOL      0.355578
    111 H47        -0.8050    1.7440    2.9970 h1        1 MOL      0.004382
    112 H48         1.9330    0.5870    3.3170 hc        1 MOL      0.096110
    113 H49         0.9450   -0.7970    5.0790 hc        1 MOL      0.059123
    114 H50        -0.2660   -0.9450    3.8550 hc        1 MOL      0.059123
    115 H51         2.1410    1.6020    5.4310 hc        1 MOL      0.152107
    116 H52         2.3550    2.6380    4.1210 hc        1 MOL      0.152107
    117 H53         0.7300    2.6670    4.9860 hc        1 MOL      0.152107
    118 H54        -1.2810   -0.5030    6.0480 hc        1 MOL      0.128477
    119 H55        -0.5350    1.0440    6.1410 hc        1 MOL      0.128477
    120 H56        -1.7460    0.5030    4.7760 hc        1 MOL      0.128477
    121 N11        -1.4070   -0.0290    1.3630 n         1 MOL     -0.134064
    122 C40        -1.8370   -1.0440    0.3600 c3        1 MOL     -0.499030
    123 C41        -3.3610   -1.0480   -0.0500 c         1 MOL      0.646739
    124 O16        -3.7600   -1.9120   -0.8300 o         1 MOL     -0.558252
    125 C42        -1.2950   -2.3780    0.7300 c3        1 MOL      0.366129
    126 O17        -1.8910   -2.5790    2.0370 oh        1 MOL     -0.597078
    127 H57        -2.1540    0.3920    1.8990 hn        1 MOL      0.245454
    128 H58        -1.3850   -0.6970   -0.5680 h1        1 MOL      0.192906
    129 H59        -0.2150   -2.3070    0.8740 h1        1 MOL     -0.023333
    130 H60        -1.6460   -3.1310    0.0210 h1        1 MOL     -0.023333
    131 H61        -1.2380   -2.9970    2.6050 ho        1 MOL      0.402923
    132 N12        -4.1380   -0.1290    0.4200 n         1 MOL     -0.365655
    133 C43        -5.5870    0.0320    0.0140 c3        1 MOL      0.004955
    134 C44        -5.6860    0.8820   -1.2350 c         1 MOL      0.626964
    135 O18        -4.6820    1.5600   -1.5900 o         1 MOL     -0.576411
    136 C45        -6.3420    0.6420    1.2410 c3        1 MOL     -0.305192
    137 H62        -3.7740    0.6520    0.9420 hn        1 MOL      0.257418
    138 H63        -6.0540   -0.9200   -0.2060 h1        1 MOL      0.152140
    139 H64        -5.7980    0.4730    2.1630 hc        1 MOL      0.103121
    140 H65        -6.4080    1.7340    1.1520 hc        1 MOL      0.103121
    141 H66        -7.3350    0.1960    1.3510 hc        1 MOL      0.103121
    142 N13        -6.8170    0.8350   -1.9970 n         1 MOL     -0.649612
    143 C46        -7.9430   -0.0070   -1.7420 c3        1 MOL      0.291921
    144 C47        -9.1980    0.5390   -2.5680 c         1 MOL      0.333235
    145 O19        -8.9990    0.9370   -3.7250 o         1 MOL     -0.526580
    146 C48        -7.6680   -1.3300   -2.3740 c3        1 MOL     -0.126156
    147 H67        -6.8760    1.4980   -2.7590 hn        1 MOL      0.352193
    148 H68        -8.2200   -0.1320   -0.6960 h1        1 MOL     -0.034568
    149 H69        -8.5410   -1.9470   -2.1580 hc        1 MOL      0.040478
    150 H70        -7.5460   -1.1990   -3.4550 hc        1 MOL      0.040478
    151 H71        -6.7980   -1.7840   -1.8960 hc        1 MOL      0.040478
    152 N14       -10.4160    0.6190   -2.1240 n         1 MOL     -0.296441
    153 C49       -10.8990    0.1980   -0.7530 c3        1 MOL     -0.155261
    154 C50       -10.3000    1.0590    0.2940 c         1 MOL      0.569154
    155 O20       -10.1290    0.5800    1.4280 o         1 MOL     -0.552176
    156 C51       -12.4440    0.2950   -0.6070 c3        1 MOL      0.155454
    157 C52       -12.8720   -0.5180    0.6090 c3        1 MOL     -0.286011
    158 C53       -14.3620   -1.0030    0.5270 c         1 MOL      0.716641
    159 O21       -14.7850   -1.9060    1.2590 o         1 MOL     -0.667156
    160 O22       -15.0310   -0.4840   -0.3800 o         1 MOL     -0.667156
    161 H72       -11.0440    1.1200   -2.7430 hn        1 MOL      0.270567
    162 H73       -10.5710   -0.8300   -0.6340 h1        1 MOL      0.131806
    163 H74       -12.8350    0.0110   -1.5850 hc        1 MOL     -0.004522
    164 H75       -12.6990    1.3540   -0.5270 hc        1 MOL     -0.004522
    165 H76       -12.7130    0.1780    1.4310 hc        1 MOL      0.062705
    166 H77       -12.1880   -1.3530    0.7150 hc        1 MOL      0.062705
    167 N15        -9.9630    2.3330   -0.0030 n         1 MOL     -0.318807
    168 C54        -9.3860    3.3110    0.9550 c3        1 MOL     -0.109931
    169 H78        -8.9850    2.7790    1.8180 h1        1 MOL      0.074925
    170 H79        -8.5860    3.8690    0.4680 h1        1 MOL      0.074925
    171 H80       -10.1630    4.0010    1.2830 h1        1 MOL      0.074925
    172 H81       -10.2460    2.7570   -0.8830 hn        1 MOL      0.248686
    173 Ca1         2.8330    0.3220   -1.1400 Ca        1 MOL      1.702301
    174 O23         0.4690    1.4830   -2.3180 oh        1 MOL     -0.878158
    175 H82        -0.3160    1.1220   -2.7140 ho        1 MOL      0.427607
    176 H83         0.5560    2.3530   -2.7100 ho        1 MOL      0.427607
    177 O24         1.0840   -1.6780   -1.7760 oh        1 MOL     -0.878158
    178 H84         0.2030   -2.0520   -1.8340 ho        1 MOL      0.427607
    179 H85         1.5000   -1.9010   -2.6090 ho        1 MOL      0.427607
    180 O25         3.2610    1.9520   -3.1910 oh        1 MOL     -0.878158
    181 H86         4.0520    2.2200   -3.6500 ho        1 MOL      0.427607
    182 H87         2.5470    2.3560   -3.6860 ho        1 MOL      0.427607
@<TRIPOS>BOND
     1    1    2 1   
     2    1    4 1   
     3    1    5 1   
     4    1    6 1   
     5    2    3 2   
     6    2    7 1   
     7    7    8 1   
     8    7   15 1   
     9    8    9 1   
    10    8   11 1   
    11    8   16 1   
    12    9   10 2   
    13    9   19 1   
    14   11   12 1   
    15   11   17 1   
    16   11   18 1   
    17   12   13 1   
    18   12   14 1   
    19   19   20 1   
    20   19   28 1   
    21   20   21 1   
    22   20   23 1   
    23   20   29 1   
    24   21   22 2   
    25   21   41 1   
    26   23   24 1   
    27   23   30 1   
    28   23   31 1   
    29   24   25 1   
    30   24   32 1   
    31   24   33 1   
    32   25   26 1   
    33   25   34 1   
    34   25   35 1   
    35   26   27 1   
    36   26   36 1   
    37   26   37 1   
    38   27   38 1   
    39   27   39 1   
    40   27   40 1   
    41   41   42 1   
    42   41   49 1   
    43   42   43 1   
    44   42   45 1   
    45   42   50 1   
    46   43   44 2   
    47   43   53 1   
    48   45   46 1   
    49   45   51 1   
    50   45   52 1   
    51   46   47 1   
    52   46   48 1   
    53   53   54 1   
    54   53   57 1   
    55   54   55 1   
    56   54   58 1   
    57   54   59 1   
    58   55   56 2   
    59   55   60 1   
    60   60   61 1   
    61   60   68 1   
    62   61   62 1   
    63   61   64 1   
    64   61   69 1   
    65   62   63 2   
    66   62   74 1   
    67   64   65 1   
    68   64   70 1   
    69   64   71 1   
    70   65   66 1   
    71   65   67 2   
    72   66   72 1   
    73   66   73 1   
    74   74   75 1   
    75   74   78 1   
    76   75   76 1   
    77   75   79 1   
    78   75   80 1   
    79   76   77 2   
    80   76   81 1   
    81   81   82 1   
    82   81   93 1   
    83   82   83 1   
    84   82   85 1   
    85   82   94 1   
    86   83   84 2   
    87   83  102 1   
    88   85   86 1   
    89   85   95 1   
    90   85   96 1   
    91   86   87 ar  
    92   86   88 ar  
    93   87   89 ar  
    94   87   97 1   
    95   88   90 ar  
    96   88   98 1   
    97   89   91 ar  
    98   89   99 1   
    99   90   91 ar  
   100   90  100 1   
   101   91   92 1   
   102   92  101 1   
   103  102  103 1   
   104  102  110 1   
   105  103  104 1   
   106  103  106 1   
   107  103  111 1   
   108  104  105 2   
   109  104  121 1   
   110  106  107 1   
   111  106  108 1   
   112  106  112 1   
   113  107  109 1   
   114  107  113 1   
   115  107  114 1   
   116  108  115 1   
   117  108  116 1   
   118  108  117 1   
   119  109  118 1   
   120  109  119 1   
   121  109  120 1   
   122  121  122 1   
   123  121  127 1   
   124  122  123 1   
   125  122  125 1   
   126  122  128 1   
   127  123  124 2   
   128  123  132 1   
   129  125  126 1   
   130  125  129 1   
   131  125  130 1   
   132  126  131 1   
   133  132  133 1   
   134  132  137 1   
   135  133  134 1   
   136  133  136 1   
   137  133  138 1   
   138  134  135 2   
   139  134  142 1   
   140  136  139 1   
   141  136  140 1   
   142  136  141 1   
   143  142  143 1   
   144  142  147 1   
   145  143  144 1   
   146  143  146 1   
   147  143  148 1   
   148  144  145 2   
   149  144  152 1   
   150  146  149 1   
   151  146  150 1   
   152  146  151 1   
   153  152  153 1   
   154  152  161 1   
   155  153  154 1   
   156  153  156 1   
   157  153  162 1   
   158  154  155 2   
   159  154  167 1   
   160  156  157 1   
   161  156  163 1   
   162  156  164 1   
   163  157  158 1   
   164  157  165 1   
   165  157  166 1   
   166  158  159 1   
   167  158  160 1   
   168  167  168 1   
   169  167  172 1   
   170  168  169 1   
   171  168  170 1   
   172  168  171 1   
   173  174  175 1   
   174  174  176 1   
   175  177  178 1   
   176  177  179 1   
   177  180  181 1   
   178  180  182 1   
@<TRIPOS>SUBSTRUCTURE
     1 MOL         1 TEMP              0 ****  ****    0 ROOT
