@<TRIPOS>MOLECULE
MOL
  189   185     1     0     0
SMALL
resp


@<TRIPOS>ATOM
      1 C1         11.7800    5.8790   -2.2550 c3        1 MOL     -0.420024
      2 C2         11.6850    4.6900   -1.2370 c         1 MOL      0.697009
      3 O1         12.4840    3.7720   -1.2580 o         1 MOL     -0.598223
      4 H1         12.7110    5.8020   -2.8170 hc        1 MOL      0.106509
      5 H2         10.9360    5.8370   -2.9440 hc        1 MOL      0.106509
      6 H3         11.7610    6.8250   -1.7130 hc        1 MOL      0.106509
      7 N1         10.7290    4.7160   -0.3100 n         1 MOL     -0.221222
      8 C3         10.5620    3.5930    0.6520 c3        1 MOL     -0.566610
      9 C4          9.4110    2.7000    0.1180 c         1 MOL      0.647131
     10 O2          8.3230    3.1100   -0.3400 o         1 MOL     -0.727348
     11 C5         10.3550    4.1350    2.0520 c3        1 MOL      0.417552
     12 C6          9.2900    5.2470    2.1920 c         1 MOL      0.616944
     13 O3          8.5950    5.4200    1.1530 o         1 MOL     -0.694445
     14 O4          9.1690    5.9220    3.2000 o         1 MOL     -0.694445
     15 H4         10.2020    5.5640   -0.1550 hn        1 MOL      0.143800
     16 H5         11.4170    2.9170    0.6930 h1        1 MOL      0.174501
     17 H6         11.2690    4.5990    2.4140 hc        1 MOL     -0.043693
     18 H7         10.2240    3.3190    2.7570 hc        1 MOL     -0.043693
     19 N2          9.6130    1.3680    0.1860 n         1 MOL     -0.287039
     20 C7          8.6300    0.3060   -0.2070 c3        1 MOL     -0.101195
     21 C8          7.6090    0.2230    0.9340 c         1 MOL      0.443017
     22 O5          7.9720    0.1820    2.0780 o         1 MOL     -0.460938
     23 C9          9.3600   -1.0050   -0.4920 c3        1 MOL     -0.125861
     24 C10         8.5050   -2.0220   -1.2560 c3        1 MOL     -0.011033
     25 C11         8.9020   -3.5170   -1.0550 c3        1 MOL     -0.009709
     26 C12         7.9970   -4.4210   -1.8710 c3        1 MOL     -0.004783
     27 N3          8.3380   -4.6090   -3.3320 n4        1 MOL     -0.348302
     28 H8         10.4680    1.0360    0.5930 hn        1 MOL      0.267131
     29 H9          8.1470    0.6760   -1.1070 h1        1 MOL      0.112555
     30 H10         9.7160   -1.4220    0.4530 hc        1 MOL      0.063177
     31 H11        10.2830   -0.8700   -1.0470 hc        1 MOL      0.063177
     32 H12         8.3620   -1.6960   -2.2920 hc        1 MOL      0.018483
     33 H13         7.5100   -2.0310   -0.8110 hc        1 MOL      0.018483
     34 H14         8.8140   -3.7770   -0.0040 hc        1 MOL      0.061237
     35 H15         9.9320   -3.7090   -1.3750 hc        1 MOL      0.061237
     36 H16         6.9370   -4.1520   -1.8950 hx        1 MOL      0.095643
     37 H17         7.9120   -5.4130   -1.4330 hx        1 MOL      0.095643
     38 H18         7.5990   -5.1500   -3.7740 hn        1 MOL      0.269589
     39 H19         8.4160   -3.7830   -3.9120 hn        1 MOL      0.269589
     40 H20         9.1450   -5.2220   -3.3710 hn        1 MOL      0.269589
     41 N4          6.3500    0.0730    0.4850 n         1 MOL     -0.098582
     42 C13         5.2040   -0.2110    1.3990 c3        1 MOL     -0.029493
     43 C14         3.9400   -0.7160    0.6050 c         1 MOL      0.417550
     44 O6          3.6890   -0.2900   -0.5260 o         1 MOL     -0.444828
     45 C15         4.9280    0.9620    2.3300 c3        1 MOL     -0.018500
     46 C16         5.0530    2.2940    1.6480 c         1 MOL      0.822727
     47 O7          6.1230    2.9660    1.8660 o         1 MOL     -0.793153
     48 O8          4.0710    2.7640    1.0900 o         1 MOL     -0.793153
     49 H21         6.1580    0.0180   -0.5050 hn        1 MOL      0.089242
     50 H22         5.5980   -1.1060    1.9050 h1        1 MOL      0.040023
     51 H23         5.5510    0.8930    3.2240 hc        1 MOL      0.034277
     52 H24         3.8820    0.9330    2.6550 hc        1 MOL      0.034277
     53 N5          3.0960   -1.6430    1.1210 n         1 MOL     -0.239581
     54 C17         3.3170   -2.4300    2.3240 c3        1 MOL     -0.307608
     55 C18         3.0340   -3.9190    2.1650 c         1 MOL      0.695935
     56 O9          3.3630   -4.5610    1.1190 o         1 MOL     -0.631857
     57 H25         2.2620   -1.8630    0.5950 hn        1 MOL      0.318465
     58 H26         2.6090   -2.0570    3.0640 h1        1 MOL      0.114053
     59 H27         4.3440   -2.4280    2.6790 h1        1 MOL      0.114053
     60 N6          2.4330   -4.5140    3.2000 n         1 MOL     -0.429331
     61 C19         2.1320   -5.9770    3.2920 c3        1 MOL      0.047569
     62 C20         1.2960   -6.5820    2.1020 c         1 MOL      0.474068
     63 O10         1.5960   -7.7030    1.8010 o         1 MOL     -0.528720
     64 C21         1.5020   -6.4480    4.6790 c3        1 MOL     -0.339540
     65 C22         0.1970   -5.7570    5.0240 c         1 MOL      0.677083
     66 O11         0.0530   -4.5020    4.9870 o         1 MOL     -0.645464
     67 O12        -0.8380   -6.4150    5.3750 o         1 MOL     -0.645464
     68 H28         2.2130   -3.9340    3.9990 hn        1 MOL      0.243539
     69 H29         3.0980   -6.4660    3.2210 h1        1 MOL      0.065024
     70 H30         2.2070   -6.0840    5.4310 hc        1 MOL      0.118141
     71 H31         1.4680   -7.5380    4.7330 hc        1 MOL      0.118141
     72 N7          0.3740   -5.8410    1.5690 n         1 MOL     -0.259790
     73 C23        -0.3890   -6.1320    0.3860 c3        1 MOL      0.124088
     74 C24         0.0850   -5.3940   -0.9180 c         1 MOL      0.443805
     75 O13        -0.2890   -5.7560   -1.9840 o         1 MOL     -0.568957
     76 H32         0.2680   -4.9360    2.0130 hn        1 MOL      0.179616
     77 H33        -1.4500   -5.9250    0.5240 h1        1 MOL      0.040239
     78 H34        -0.3750   -7.2010    0.2250 h1        1 MOL      0.040239
     79 N8          0.8420   -4.3780   -0.8100 n         1 MOL     -0.291047
     80 C25         1.1390   -3.4090   -1.8590 c3        1 MOL      0.124594
     81 C26         0.5680   -2.0800   -1.5140 c         1 MOL      0.249947
     82 O14         0.8060   -1.5760   -0.4130 o         1 MOL     -0.523494
     83 C27         2.6490   -3.2850   -2.0400 c3        1 MOL      0.421019
     84 C28         3.2460   -4.6070   -2.4880 c3        1 MOL     -0.447598
     85 O15         2.8710   -2.1860   -2.9660 oh        1 MOL     -0.647880
     86 H35         0.9850   -4.0710    0.1370 hn        1 MOL      0.247602
     87 H36         0.7120   -3.6670   -2.8250 h1        1 MOL      0.052391
     88 H37         3.1180   -3.0590   -1.0840 h1        1 MOL     -0.082931
     89 H38         3.4610   -1.5450   -2.5640 ho        1 MOL      0.363348
     90 H39         4.3220   -4.4790   -2.6200 hc        1 MOL      0.116975
     91 H40         3.1290   -5.4450   -1.8010 hc        1 MOL      0.116975
     92 H41         2.8120   -4.9540   -3.4230 hc        1 MOL      0.116975
     93 N9         -0.0600   -1.3810   -2.4620 n         1 MOL     -0.104053
     94 C29        -0.5550    0.0040   -2.3630 c3        1 MOL     -0.078359
     95 C30        -1.9670    0.0520   -1.6330 c         1 MOL      0.594890
     96 O16        -2.2170    1.0800   -1.0770 o         1 MOL     -0.540550
     97 C31        -0.7150    0.5660   -3.7530 c3        1 MOL      0.109856
     98 C32         0.6020    0.4290   -4.5820 c3        1 MOL      0.025070
     99 C33        -1.2370    1.9860   -3.8290 c3        1 MOL     -0.384088
    100 C34         1.8050    1.2350   -4.0900 c3        1 MOL      0.006821
    101 H42        -0.2910   -1.8640   -3.3140 hn        1 MOL      0.206814
    102 H43         0.1390    0.6440   -1.8270 h1        1 MOL      0.123890
    103 H44        -1.4310   -0.1390   -4.1680 hc        1 MOL     -0.012199
    104 H45         0.4870    0.6710   -5.6370 hc        1 MOL     -0.016287
    105 H46         0.9030   -0.6190   -4.5220 hc        1 MOL     -0.016287
    106 H47        -1.2380    2.3260   -4.8610 hc        1 MOL      0.109066
    107 H48        -2.2660    1.9660   -3.4720 hc        1 MOL      0.109066
    108 H49        -0.5590    2.6030   -3.2380 hc        1 MOL      0.109066
    109 H50         1.6370    2.2380   -3.7020 hc        1 MOL     -0.009862
    110 H51         2.3700    0.7180   -3.3240 hc        1 MOL     -0.009862
    111 H52         2.4980    1.3530   -4.9250 hc        1 MOL     -0.009862
    112 N10        -2.7760   -0.9480   -1.7470 n         1 MOL     -0.505609
    113 C35        -3.9250   -1.1870   -0.8570 c3        1 MOL      0.111248
    114 C36        -5.1160   -1.7910   -1.6370 c         1 MOL      0.592600
    115 O17        -4.9580   -2.7100   -2.4240 o         1 MOL     -0.519815
    116 C37        -3.5060   -2.1040    0.2530 c3        1 MOL      0.263644
    117 C38        -2.9910   -3.5240   -0.3060 c3        1 MOL     -0.417212
    118 O18        -2.4570   -1.5230    1.0000 oh        1 MOL     -0.559691
    119 H53        -2.3980   -1.6750   -2.3280 hn        1 MOL      0.237742
    120 H54        -4.2130   -0.2010   -0.4970 h1        1 MOL      0.075830
    121 H55        -4.3860   -2.1340    0.9010 h1        1 MOL      0.012295
    122 H56        -2.1110   -2.1790    1.6240 ho        1 MOL      0.394689
    123 H57        -2.4530   -4.0270    0.5040 hc        1 MOL      0.111351
    124 H58        -3.8670   -4.1050   -0.6110 hc        1 MOL      0.111351
    125 H59        -2.2150   -3.3950   -1.0630 hc        1 MOL      0.111351
    126 N11        -6.3260   -1.3310   -1.2820 n         1 MOL     -0.564690
    127 C39        -7.5670   -1.9190   -1.8270 c3        1 MOL      0.020231
    128 C40        -8.7100   -0.9150   -1.8400 c         1 MOL      0.661670
    129 O19        -9.3700   -0.7680   -2.8850 o         1 MOL     -0.565805
    130 C41        -7.9430   -3.2490   -1.1190 c3        1 MOL      0.321708
    131 C42        -9.2380   -3.6820   -1.7190 c3        1 MOL     -0.312239
    132 O20        -8.0580   -2.9440    0.2540 oh        1 MOL     -0.639337
    133 H60        -6.4010   -0.6200   -0.5770 hn        1 MOL      0.297634
    134 H61        -7.3290   -2.1280   -2.8680 h1        1 MOL      0.082722
    135 H62        -7.1250   -3.9470   -1.3260 h1        1 MOL      0.059166
    136 H63        -8.8170   -3.3680    0.6620 ho        1 MOL      0.406934
    137 H64       -10.0350   -3.1360   -1.2250 hc        1 MOL      0.076333
    138 H65        -9.2200   -3.4180   -2.7720 hc        1 MOL      0.076333
    139 H66        -9.2950   -4.7750   -1.6920 hc        1 MOL      0.076333
    140 N12        -8.8910   -0.1840   -0.7180 n         1 MOL     -0.534483
    141 C43        -9.8170    0.8950   -0.4990 c3        1 MOL     -0.148955
    142 C44        -9.2300    1.8440    0.5890 c         1 MOL      0.767318
    143 O21        -8.9100    1.3640    1.7090 o         1 MOL     -0.533523
    144 C45       -11.1840    0.2710   -0.0690 c3        1 MOL     -0.004227
    145 C46       -12.3420    1.2210    0.2580 c3        1 MOL     -0.076535
    146 C47       -13.6190    0.5910    0.7540 c3        1 MOL     -0.032455
    147 C48       -14.3070   -0.3820   -0.2410 c3        1 MOL      0.023367
    148 N13       -15.5780   -0.8900    0.1930 n4        1 MOL     -0.162716
    149 H67        -8.2990   -0.4530    0.0530 hn        1 MOL      0.306999
    150 H68        -9.9830    1.4300   -1.4320 h1        1 MOL      0.139969
    151 H69       -10.9640   -0.3380    0.8140 hc        1 MOL      0.035601
    152 H70       -11.4830   -0.4110   -0.8720 hc        1 MOL      0.035601
    153 H71       -12.5040    1.8460   -0.6190 hc        1 MOL      0.047886
    154 H72       -11.9110    1.8070    1.0750 hc        1 MOL      0.047886
    155 H73       -14.3400    1.3530    1.0470 hc        1 MOL      0.044524
    156 H74       -13.3320    0.0550    1.6570 hc        1 MOL      0.044524
    157 H75       -13.5910   -1.1930   -0.3520 hx        1 MOL      0.071869
    158 H76       -14.4720    0.1400   -1.1810 hx        1 MOL      0.071869
    159 H77       -16.2180   -0.1630    0.4560 hn        1 MOL      0.216869
    160 H78       -16.1090   -1.4780   -0.4370 hn        1 MOL      0.216869
    161 H79       -15.4970   -1.4570    1.0260 hn        1 MOL      0.216869
    162 N14        -9.1420    3.1550    0.3210 n         1 MOL     -0.703016
    163 C49        -8.7860    4.1030    1.3540 c3        1 MOL      0.225875
    164 C50        -7.2420    4.0950    1.4410 c         1 MOL      0.412497
    165 O22        -6.7360    3.8580    2.5310 o         1 MOL     -0.529562
    166 C51        -9.5370    5.4860    1.0350 c3        1 MOL      0.031365
    167 C52        -9.0020    6.6980    1.7730 c3        1 MOL     -0.253086
    168 C53        -9.7280    8.0040    1.5730 c         1 MOL      0.714624
    169 O23        -9.5010    8.7550    0.6240 o         1 MOL     -0.634298
    170 O24       -10.6520    8.3660    2.4140 o         1 MOL     -0.634298
    171 H80        -9.6900    3.4580   -0.4760 hn        1 MOL      0.300079
    172 H81        -9.0910    3.7310    2.3350 h1        1 MOL      0.058462
    173 H82       -10.6050    5.3210    1.1920 hc        1 MOL      0.007770
    174 H83        -9.4490    5.6960   -0.0290 hc        1 MOL      0.007770
    175 H84        -7.9260    6.7800    1.6060 hc        1 MOL      0.061064
    176 H85        -9.1250    6.4530    2.8230 hc        1 MOL      0.061064
    177 N15        -6.4280    4.2980    0.4280 n         1 MOL     -0.355277
    178 C54        -6.8200    4.9270   -0.8760 c3        1 MOL     -0.079710
    179 H86        -6.1910    4.5310   -1.6730 h1        1 MOL      0.072499
    180 H87        -7.8640    4.7010   -1.0910 h1        1 MOL      0.072499
    181 H88        -6.6880    6.0080   -0.8130 h1        1 MOL      0.072499
    182 H89        -5.4970    3.9460    0.5620 hn        1 MOL      0.307240
    183 Ca1         6.3080    4.7360    0.0430 Ca        1 MOL      1.732149
    184 O25         3.5240    4.9470   -0.3710 oh        1 MOL     -0.904493
    185 H90         3.4340    4.1410    0.1400 ho        1 MOL      0.443574
    186 H91         2.6200    5.1550   -0.6390 ho        1 MOL      0.443574
    187 O26         5.4970    2.6890   -1.7060 oh        1 MOL     -0.904493
    188 H92         5.5020    1.7980   -2.0500 ho        1 MOL      0.443574
    189 H93         5.5210    3.2540   -2.4780 ho        1 MOL      0.443574
@<TRIPOS>BOND
     1    1    2 1   
     2    1    4 1   
     3    1    5 1   
     4    1    6 1   
     5    2    3 2   
     6    2    7 1   
     7    7    8 1   
     8    7   15 1   
     9    8    9 1   
    10    8   11 1   
    11    8   16 1   
    12    9   10 2   
    13    9   19 1   
    14   11   12 1   
    15   11   17 1   
    16   11   18 1   
    17   12   13 1   
    18   12   14 1   
    19   19   20 1   
    20   19   28 1   
    21   20   21 1   
    22   20   23 1   
    23   20   29 1   
    24   21   22 2   
    25   21   41 1   
    26   23   24 1   
    27   23   30 1   
    28   23   31 1   
    29   24   25 1   
    30   24   32 1   
    31   24   33 1   
    32   25   26 1   
    33   25   34 1   
    34   25   35 1   
    35   26   27 1   
    36   26   36 1   
    37   26   37 1   
    38   27   38 1   
    39   27   39 1   
    40   27   40 1   
    41   41   42 1   
    42   41   49 1   
    43   42   43 1   
    44   42   45 1   
    45   42   50 1   
    46   43   44 2   
    47   43   53 1   
    48   45   46 1   
    49   45   51 1   
    50   45   52 1   
    51   46   47 1   
    52   46   48 1   
    53   53   54 1   
    54   53   57 1   
    55   54   55 1   
    56   54   58 1   
    57   54   59 1   
    58   55   56 2   
    59   55   60 1   
    60   60   61 1   
    61   60   68 1   
    62   61   62 1   
    63   61   64 1   
    64   61   69 1   
    65   62   63 2   
    66   62   72 1   
    67   64   65 1   
    68   64   70 1   
    69   64   71 1   
    70   65   66 1   
    71   65   67 1   
    72   72   73 1   
    73   72   76 1   
    74   73   74 1   
    75   73   77 1   
    76   73   78 1   
    77   74   75 2   
    78   74   79 1   
    79   79   80 1   
    80   79   86 1   
    81   80   81 1   
    82   80   83 1   
    83   80   87 1   
    84   81   82 2   
    85   81   93 1   
    86   83   84 1   
    87   83   85 1   
    88   83   88 1   
    89   84   90 1   
    90   84   91 1   
    91   84   92 1   
    92   85   89 1   
    93   93   94 1   
    94   93  101 1   
    95   94   95 1   
    96   94   97 1   
    97   94  102 1   
    98   95   96 2   
    99   95  112 1   
   100   97   98 1   
   101   97   99 1   
   102   97  103 1   
   103   98  100 1   
   104   98  104 1   
   105   98  105 1   
   106   99  106 1   
   107   99  107 1   
   108   99  108 1   
   109  100  109 1   
   110  100  110 1   
   111  100  111 1   
   112  112  113 1   
   113  112  119 1   
   114  113  114 1   
   115  113  116 1   
   116  113  120 1   
   117  114  115 2   
   118  114  126 1   
   119  116  117 1   
   120  116  118 1   
   121  116  121 1   
   122  117  123 1   
   123  117  124 1   
   124  117  125 1   
   125  118  122 1   
   126  126  127 1   
   127  126  133 1   
   128  127  128 1   
   129  127  130 1   
   130  127  134 1   
   131  128  129 2   
   132  128  140 1   
   133  130  131 1   
   134  130  132 1   
   135  130  135 1   
   136  131  137 1   
   137  131  138 1   
   138  131  139 1   
   139  132  136 1   
   140  140  141 1   
   141  140  149 1   
   142  141  142 1   
   143  141  144 1   
   144  141  150 1   
   145  142  143 2   
   146  142  162 1   
   147  144  145 1   
   148  144  151 1   
   149  144  152 1   
   150  145  146 1   
   151  145  153 1   
   152  145  154 1   
   153  146  147 1   
   154  146  155 1   
   155  146  156 1   
   156  147  148 1   
   157  147  157 1   
   158  147  158 1   
   159  148  159 1   
   160  148  160 1   
   161  148  161 1   
   162  162  163 1   
   163  162  171 1   
   164  163  164 1   
   165  163  166 1   
   166  163  172 1   
   167  164  165 2   
   168  164  177 1   
   169  166  167 1   
   170  166  173 1   
   171  166  174 1   
   172  167  168 1   
   173  167  175 1   
   174  167  176 1   
   175  168  169 1   
   176  168  170 1   
   177  177  178 1   
   178  177  182 1   
   179  178  179 1   
   180  178  180 1   
   181  178  181 1   
   182  184  185 1   
   183  184  186 1   
   184  187  188 1   
   185  187  189 1   
@<TRIPOS>SUBSTRUCTURE
     1 MOL         1 TEMP              0 ****  ****    0 ROOT
