@<TRIPOS>MOLECULE
MOL
  198   191     1     0     0
SMALL
resp


@<TRIPOS>ATOM
      1 C1          3.3050   -5.7820    2.0530 c3        1 MOL     -0.492572
      2 C2          2.9050   -4.5720    1.2820 c         1 MOL      0.800521
      3 O1          3.6940   -3.8060    0.7310 o         1 MOL     -0.606454
      4 H1          2.6290   -6.6040    1.8150 hc        1 MOL      0.143086
      5 H2          4.3250   -6.0620    1.7870 hc        1 MOL      0.143086
      6 H3          3.2540   -5.5670    3.1200 hc        1 MOL      0.143086
      7 N1          1.5650   -4.2190    1.1450 n         1 MOL     -0.718048
      8 C3          0.3570   -5.0050    1.5140 c3        1 MOL      0.050048
      9 C4         -0.2090   -5.8040    0.3950 c         1 MOL      0.432535
     10 O2         -0.8840   -6.8370    0.5990 o         1 MOL     -0.534245
     11 C5         -0.6000   -3.9170    2.0680 c3        1 MOL      0.053034
     12 C6          0.0070   -2.8990    2.9150 c         1 MOL      0.841218
     13 O3          0.2490   -3.0020    4.1360 o         1 MOL     -0.806450
     14 O4          0.3470   -1.7810    2.3900 o         1 MOL     -0.806450
     15 H4          1.4320   -3.3500    0.6490 hn        1 MOL      0.343270
     16 H5          0.5740   -5.6370    2.3750 h1        1 MOL      0.078394
     17 H6         -1.3370   -4.4410    2.6830 hc        1 MOL     -0.017009
     18 H7         -1.0930   -3.5710    1.1540 hc        1 MOL     -0.017009
     19 N2          0.2090   -5.3910   -0.8330 n         1 MOL     -0.126526
     20 C7         -0.0430   -6.0510   -2.1040 c3        1 MOL     -0.261753
     21 C8         -1.5220   -5.9130   -2.5310 c         1 MOL      0.489588
     22 O5         -1.9170   -6.8340   -3.1790 o         1 MOL     -0.543352
     23 C9          0.9390   -5.7030   -3.2280 c3        1 MOL      0.207272
     24 C10         0.9080   -4.1870   -3.5510 c3        1 MOL      0.235600
     25 C11         2.3780   -6.0560   -2.7700 c3        1 MOL     -0.439742
     26 C12         0.8460   -3.9310   -5.0390 c3        1 MOL     -0.364447
     27 H8          0.8200   -4.5840   -0.8860 hn        1 MOL      0.167951
     28 H9          0.0120   -7.1180   -1.8980 h1        1 MOL      0.121004
     29 H10         0.6420   -6.3760   -4.0240 hc        1 MOL      0.003817
     30 H11         1.7410   -3.6580   -3.0870 hc        1 MOL     -0.019158
     31 H12         0.0520   -3.6980   -3.0780 hc        1 MOL     -0.019158
     32 H13         3.0830   -6.0630   -3.6030 hc        1 MOL      0.097005
     33 H14         2.7520   -5.2870   -2.0930 hc        1 MOL      0.097005
     34 H15         2.3200   -7.0630   -2.3590 hc        1 MOL      0.097005
     35 H16         0.9160   -2.8430   -5.1550 hc        1 MOL      0.073945
     36 H17         1.6850   -4.4290   -5.5230 hc        1 MOL      0.073945
     37 H18        -0.1660   -4.2040   -5.3490 hc        1 MOL      0.073945
     38 N3         -2.2510   -4.8610   -2.1510 n         1 MOL     -0.151744
     39 C13        -3.6360   -4.7210   -2.5710 c3        1 MOL     -0.078172
     40 C14        -4.3140   -3.9260   -1.4730 c         1 MOL      0.511472
     41 O6         -3.7090   -3.1890   -0.6970 o         1 MOL     -0.506776
     42 C15        -3.5950   -3.9300   -3.8630 c3        1 MOL     -0.273305
     43 C16        -5.0650   -3.6420   -4.2780 c         1 MOL      0.798195
     44 O7         -5.3990   -2.5120   -4.5270 o         1 MOL     -0.726077
     45 O8         -5.8370   -4.5360   -4.5660 o         1 MOL     -0.726077
     46 H19        -1.8200   -4.2920   -1.4350 hn        1 MOL      0.149356
     47 H20        -4.2160   -5.5970   -2.8520 h1        1 MOL      0.056706
     48 H21        -3.1020   -4.5700   -4.5990 hc        1 MOL      0.048028
     49 H22        -3.0040   -3.0160   -3.7690 hc        1 MOL      0.048028
     50 N4         -5.5940   -4.2720   -1.3300 n         1 MOL     -0.383050
     51 C17        -6.3940   -3.8520   -0.0800 c3        1 MOL     -0.101377
     52 C18        -6.4510   -2.3450   -0.0900 c         1 MOL      0.619042
     53 O9         -6.1370   -1.6540   -1.0710 o         1 MOL     -0.493768
     54 H23        -6.0680   -4.8520   -2.0160 hn        1 MOL      0.269867
     55 H24        -6.0420   -4.3300    0.8400 h1        1 MOL      0.086728
     56 H25        -7.4440   -4.1500   -0.0990 h1        1 MOL      0.086728
     57 N5         -6.7570   -1.8140    1.0990 n         1 MOL     -0.645311
     58 C19        -6.7050   -0.3280    1.2850 c3        1 MOL      0.190788
     59 C20        -7.8390    0.4060    0.5690 c         1 MOL      0.585095
     60 O10        -8.9650   -0.0900    0.4120 o         1 MOL     -0.567347
     61 C21        -6.5940   -0.0030    2.7640 c3        1 MOL     -0.292822
     62 C22        -7.6550   -0.5230    3.7240 c         1 MOL      0.778361
     63 O11        -7.9510   -1.7140    3.5590 o         1 MOL     -0.737694
     64 O12        -7.9950    0.1500    4.7330 o         1 MOL     -0.737694
     65 H26        -6.8790   -2.3650    1.9430 hn        1 MOL      0.364236
     66 H27        -5.8120    0.0050    0.7680 h1        1 MOL      0.038035
     67 H28        -6.4590    1.0700    2.9170 hc        1 MOL      0.030502
     68 H29        -5.6150   -0.4190    2.9950 hc        1 MOL      0.030502
     69 N6         -7.6550    1.5930    0.0990 n         1 MOL     -0.594752
     70 C23        -6.4700    2.3920    0.1370 c3        1 MOL      0.162965
     71 C24        -6.6760    3.6620   -0.7220 c         1 MOL      0.569376
     72 O13        -7.6190    3.6920   -1.4760 o         1 MOL     -0.555058
     73 H30        -8.3370    1.9610   -0.5420 hn        1 MOL      0.319766
     74 H31        -5.6230    1.9410   -0.3810 h1        1 MOL      0.067565
     75 H32        -6.0970    2.6590    1.1250 h1        1 MOL      0.067565
     76 N7         -5.8510    4.7050   -0.7480 n         1 MOL     -0.513509
     77 C25        -4.6790    4.9780    0.0620 c3        1 MOL     -0.149545
     78 C26        -3.6380    3.8830   -0.0510 c         1 MOL      0.761421
     79 O14        -3.6700    2.7970    0.5700 o         1 MOL     -0.631447
     80 C27        -5.0080    5.2240    1.5550 c3        1 MOL     -0.048283
     81 C28        -6.1130    6.2730    1.8250 c3        1 MOL     -0.085214
     82 C29        -5.7420    7.6730    1.4810 c         1 MOL      0.644038
     83 N8         -6.4820    8.6030    1.9650 n         1 MOL     -0.765377
     84 O15        -4.7380    8.0000    0.7890 o         1 MOL     -0.576799
     85 H33        -5.9660    5.3210   -1.5440 hn        1 MOL      0.318634
     86 H34        -4.2430    5.8860   -0.3550 h1        1 MOL      0.124615
     87 H35        -4.1000    5.5250    2.0750 hc        1 MOL      0.021164
     88 H36        -5.3100    4.3050    2.0570 hc        1 MOL      0.021164
     89 H37        -6.2830    6.1740    2.8980 hc        1 MOL      0.048095
     90 H38        -7.0530    5.9200    1.4100 hc        1 MOL      0.048095
     91 H39        -7.3870    8.3930    2.3580 hn        1 MOL      0.355137
     92 H40        -6.1910    9.5350    1.6970 hn        1 MOL      0.355137
     93 N9         -2.6580    4.1340   -0.8950 n         1 MOL     -0.658194
     94 C30        -1.3430    3.4140   -0.9120 c3        1 MOL      0.308784
     95 C31        -1.1140    2.6840   -2.2390 c         1 MOL      0.508114
     96 O16        -1.6220    3.0650   -3.2790 o         1 MOL     -0.542670
     97 C32        -0.1530    4.3210   -0.5550 c3        1 MOL     -0.095582
     98 C33        -0.3660    4.7910    0.9360 c3        1 MOL     -0.171806
     99 C34        -0.0730    5.5260   -1.4740 c3        1 MOL     -0.171806
    100 H41        -2.8510    4.8400   -1.5950 hn        1 MOL      0.329094
    101 H42        -1.4520    2.5990   -0.1880 h1        1 MOL      0.022862
    102 H43         0.7660    3.7340   -0.6300 hc        1 MOL      0.088399
    103 H44         0.3710    5.5620    1.1660 hc        1 MOL      0.048220
    104 H45        -1.3620    5.1740    1.1260 hc        1 MOL      0.048220
    105 H46        -0.2940    3.9260    1.5960 hc        1 MOL      0.048220
    106 H47         0.7420    6.2140   -1.2380 hc        1 MOL      0.048220
    107 H48         0.0710    5.3010   -2.5320 hc        1 MOL      0.048220
    108 H49        -0.9810    6.1230   -1.4880 hc        1 MOL      0.048220
    109 N10        -0.4110    1.5730   -2.1510 n         1 MOL     -0.391284
    110 C35        -0.0850    0.6770   -3.2630 c3        1 MOL      0.135914
    111 C36         1.3850    0.4810   -3.6130 c         1 MOL      0.400427
    112 O17         1.7420   -0.0840   -4.6880 o         1 MOL     -0.505304
    113 C37        -0.6140   -0.6840   -2.9090 c3        1 MOL     -0.475899
    114 C38        -0.1160   -1.3130   -1.5910 c         1 MOL      0.714625
    115 N11        -0.9430   -1.3190   -0.5850 n         1 MOL     -0.605120
    116 O18         1.0520   -1.6150   -1.3600 o         1 MOL     -0.587544
    117 H50        -0.1140    1.3590   -1.2110 hn        1 MOL      0.194059
    118 H51        -0.5540    1.0050   -4.1910 h1        1 MOL      0.118330
    119 H52        -0.2910   -1.4120   -3.6530 hc        1 MOL      0.174543
    120 H53        -1.7080   -0.6480   -2.8580 hc        1 MOL      0.174543
    121 H54        -1.8280   -0.8540   -0.7310 hn        1 MOL      0.287869
    122 H55        -0.6320   -1.5360    0.3540 hn        1 MOL      0.287869
    123 N12         2.2960    1.0790   -2.8170 n         1 MOL     -0.291305
    124 C39         3.7720    1.1570   -2.8940 c3        1 MOL     -0.176651
    125 C40         4.3660    1.7880   -1.6080 c         1 MOL      0.888581
    126 O19         3.6080    2.2910   -0.7510 o         1 MOL     -0.578849
    127 C41         4.1810    2.0890   -4.0660 c3        1 MOL      0.025768
    128 C42         3.7330    3.5430   -3.7980 ca        1 MOL     -0.005416
    129 C43         4.7050    4.4810   -3.3390 ca        1 MOL     -0.057362
    130 C44         2.4850    3.8560   -4.1970 ca        1 MOL     -0.057362
    131 C45         4.2560    5.7570   -3.0980 ca        1 MOL     -0.325987
    132 C46         2.1580    5.2200   -4.1490 ca        1 MOL     -0.325987
    133 C47         3.0140    6.1710   -3.5020 ca        1 MOL      0.341367
    134 O20         2.6710    7.4660   -3.2410 oh        1 MOL     -0.470112
    135 H56         1.9600    1.4870   -1.9580 hn        1 MOL      0.178627
    136 H57         4.2370    0.1700   -2.9830 h1        1 MOL      0.140720
    137 H58         3.7980    1.6860   -5.0020 hc        1 MOL      0.005772
    138 H59         5.2710    2.1880   -4.1370 hc        1 MOL      0.005772
    139 H60         5.7080    4.2030   -3.0380 ha        1 MOL      0.112297
    140 H61         1.6640    3.2420   -4.5430 ha        1 MOL      0.112297
    141 H62         4.9290    6.4570   -2.6330 ha        1 MOL      0.176590
    142 H63         1.2120    5.5660   -4.5530 ha        1 MOL      0.176590
    143 H64         1.7740    7.6550   -3.5380 ho        1 MOL      0.333146
    144 N13         5.7210    1.6790   -1.4150 n         1 MOL     -0.743753
    145 C48         6.3980    1.9270   -0.1170 c3        1 MOL      0.097110
    146 C49         7.1290    0.6420    0.3900 c         1 MOL      0.476535
    147 O21         8.3400    0.5280    0.2530 o         1 MOL     -0.504972
    148 C50         7.3740    3.1570   -0.2920 c3        1 MOL     -0.210878
    149 C51         7.6750    3.8620    1.0540 c3        1 MOL      0.018249
    150 C52         8.2200    5.2180    0.8710 c         1 MOL      0.641975
    151 O22         9.5200    5.2440    0.9030 o         1 MOL     -0.726588
    152 O23         7.4900    6.2030    0.6340 o         1 MOL     -0.726588
    153 H65         6.3410    1.2210   -2.0790 hn        1 MOL      0.376884
    154 H66         5.6820    2.1920    0.6630 h1        1 MOL      0.024299
    155 H67         6.9230    3.9210   -0.9250 hc        1 MOL      0.099793
    156 H68         8.3120    2.9500   -0.8180 hc        1 MOL      0.099793
    157 H69         8.3580    3.2250    1.6370 hc        1 MOL     -0.041139
    158 H70         6.7650    3.9300    1.6500 hc        1 MOL     -0.041139
    159 N14         6.3930   -0.3330    0.9490 n         1 MOL     -0.256374
    160 C53         6.8690   -1.7380    1.2230 c3        1 MOL     -0.116076
    161 C54         7.0340   -2.5550   -0.0540 c         1 MOL      0.423668
    162 O24         7.7190   -3.5750   -0.0740 o         1 MOL     -0.533938
    163 C55         5.8860   -2.3460    2.2280 c3        1 MOL      0.080482
    164 C56         6.0010   -1.6570    3.6500 c3        1 MOL     -0.047569
    165 C57         4.8470   -2.1580    4.5650 c         1 MOL      0.591850
    166 O25         3.7660   -1.5080    4.6340 o         1 MOL     -0.690243
    167 O26         5.0380   -3.1740    5.3000 o         1 MOL     -0.690243
    168 H71         5.4050   -0.1350    1.0400 hn        1 MOL      0.169933
    169 H72         7.8650   -1.6880    1.6430 h1        1 MOL      0.139790
    170 H73         5.9890   -3.4260    2.1990 hc        1 MOL      0.034263
    171 H74         4.8550   -2.2760    1.8980 hc        1 MOL      0.034263
    172 H75         5.7730   -0.6030    3.4870 hc        1 MOL     -0.030946
    173 H76         7.0000   -1.7730    4.0550 hc        1 MOL     -0.030946
    174 N15         6.5520   -2.0430   -1.1870 n         1 MOL     -0.075861
    175 C58         6.7390   -2.6500   -2.5460 c3        1 MOL     -0.213288
    176 H77         5.7750   -2.9800   -2.9320 h1        1 MOL      0.094193
    177 H78         7.1650   -1.9080   -3.2210 h1        1 MOL      0.094193
    178 H79         7.4120   -3.5050   -2.4730 h1        1 MOL      0.094193
    179 H80         6.1580   -1.1180   -1.1810 hn        1 MOL      0.056058
    180 Ca1         1.1740   -0.5620    4.6540 Ca        1 MOL      1.740782
    181 O27         2.5870    0.2990    2.5600 oh        1 MOL     -0.815483
    182 H81         2.8520   -0.2490    1.8140 ho        1 MOL      0.409825
    183 H82         3.3270    0.8930    2.6940 ho        1 MOL      0.409825
    184 O28         1.8590   -1.2470    7.2010 oh        1 MOL     -0.815483
    185 H83         2.0100   -0.9430    8.0900 ho        1 MOL      0.409825
    186 H84         2.1790   -2.1510    7.2000 ho        1 MOL      0.409825
    187 O29        -0.7410   -0.1790    6.4610 oh        1 MOL     -0.815483
    188 H85        -1.5490    0.1910    6.0970 ho        1 MOL      0.409825
    189 H86        -0.9980   -0.4740    7.3360 ho        1 MOL      0.409825
    190 O30        -1.8610   -0.4370    3.7500 oh        1 MOL     -0.815483
    191 H87        -1.9310    0.5060    3.5670 ho        1 MOL      0.409825
    192 H88        -1.8220   -0.8490    2.8800 ho        1 MOL      0.409825
    193 O31         0.1710    1.6710    3.7090 oh        1 MOL     -0.815483
    194 H89         0.7790    2.3710    3.4880 ho        1 MOL      0.409825
    195 H90        -0.6070    1.8480    3.1730 ho        1 MOL      0.409825
    196 O32         2.7210    1.7210    5.3320 oh        1 MOL     -0.815483
    197 H91         3.2690    2.0150    4.6090 ho        1 MOL      0.409825
    198 H92         2.6190    2.4960    5.8830 ho        1 MOL      0.409825
@<TRIPOS>BOND
     1    1    2 1   
     2    1    4 1   
     3    1    5 1   
     4    1    6 1   
     5    2    3 2   
     6    2    7 1   
     7    7    8 1   
     8    7   15 1   
     9    8    9 1   
    10    8   11 1   
    11    8   16 1   
    12    9   10 2   
    13    9   19 1   
    14   11   12 1   
    15   11   17 1   
    16   11   18 1   
    17   12   13 1   
    18   12   14 1   
    19   19   20 1   
    20   19   27 1   
    21   20   21 1   
    22   20   23 1   
    23   20   28 1   
    24   21   22 2   
    25   21   38 1   
    26   23   24 1   
    27   23   25 1   
    28   23   29 1   
    29   24   26 1   
    30   24   30 1   
    31   24   31 1   
    32   25   32 1   
    33   25   33 1   
    34   25   34 1   
    35   26   35 1   
    36   26   36 1   
    37   26   37 1   
    38   38   39 1   
    39   38   46 1   
    40   39   40 1   
    41   39   42 1   
    42   39   47 1   
    43   40   41 2   
    44   40   50 1   
    45   42   43 1   
    46   42   48 1   
    47   42   49 1   
    48   43   44 1   
    49   43   45 1   
    50   50   51 1   
    51   50   54 1   
    52   51   52 1   
    53   51   55 1   
    54   51   56 1   
    55   52   53 2   
    56   52   57 1   
    57   57   58 1   
    58   57   65 1   
    59   58   59 1   
    60   58   61 1   
    61   58   66 1   
    62   59   60 2   
    63   59   69 1   
    64   61   62 1   
    65   61   67 1   
    66   61   68 1   
    67   62   63 1   
    68   62   64 1   
    69   69   70 1   
    70   69   73 1   
    71   70   71 1   
    72   70   74 1   
    73   70   75 1   
    74   71   72 2   
    75   71   76 1   
    76   76   77 1   
    77   76   85 1   
    78   77   78 1   
    79   77   80 1   
    80   77   86 1   
    81   78   79 2   
    82   78   93 1   
    83   80   81 1   
    84   80   87 1   
    85   80   88 1   
    86   81   82 1   
    87   81   89 1   
    88   81   90 1   
    89   82   83 1   
    90   82   84 2   
    91   83   91 1   
    92   83   92 1   
    93   93   94 1   
    94   93  100 1   
    95   94   95 1   
    96   94   97 1   
    97   94  101 1   
    98   95   96 2   
    99   95  109 1   
   100   97   98 1   
   101   97   99 1   
   102   97  102 1   
   103   98  103 1   
   104   98  104 1   
   105   98  105 1   
   106   99  106 1   
   107   99  107 1   
   108   99  108 1   
   109  109  110 1   
   110  109  117 1   
   111  110  111 1   
   112  110  113 1   
   113  110  118 1   
   114  111  112 2   
   115  111  123 1   
   116  113  114 1   
   117  113  119 1   
   118  113  120 1   
   119  114  115 1   
   120  114  116 2   
   121  115  121 1   
   122  115  122 1   
   123  123  124 1   
   124  123  135 1   
   125  124  125 1   
   126  124  127 1   
   127  124  136 1   
   128  125  126 2   
   129  125  144 1   
   130  127  128 1   
   131  127  137 1   
   132  127  138 1   
   133  128  129 ar  
   134  128  130 ar  
   135  129  131 ar  
   136  129  139 1   
   137  130  132 ar  
   138  130  140 1   
   139  131  133 ar  
   140  131  141 1   
   141  132  133 ar  
   142  132  142 1   
   143  133  134 1   
   144  134  143 1   
   145  144  145 1   
   146  144  153 1   
   147  145  146 1   
   148  145  148 1   
   149  145  154 1   
   150  146  147 2   
   151  146  159 1   
   152  148  149 1   
   153  148  155 1   
   154  148  156 1   
   155  149  150 1   
   156  149  157 1   
   157  149  158 1   
   158  150  151 1   
   159  150  152 1   
   160  159  160 1   
   161  159  168 1   
   162  160  161 1   
   163  160  163 1   
   164  160  169 1   
   165  161  162 2   
   166  161  174 1   
   167  163  164 1   
   168  163  170 1   
   169  163  171 1   
   170  164  165 1   
   171  164  172 1   
   172  164  173 1   
   173  165  166 1   
   174  165  167 1   
   175  174  175 1   
   176  174  179 1   
   177  175  176 1   
   178  175  177 1   
   179  175  178 1   
   180  181  182 1   
   181  181  183 1   
   182  184  185 1   
   183  184  186 1   
   184  187  188 1   
   185  187  189 1   
   186  190  191 1   
   187  190  192 1   
   188  193  194 1   
   189  193  195 1   
   190  196  197 1   
   191  196  198 1   
@<TRIPOS>SUBSTRUCTURE
     1 MOL         1 TEMP              0 ****  ****    0 ROOT
