@<TRIPOS>MOLECULE
MOL
  178   175     1     0     0
SMALL
resp


@<TRIPOS>ATOM
      1 C1          1.0670    6.4360   -1.7930 c3        1 MOL     -0.421695
      2 C2          2.4560    6.5490   -1.0920 c         1 MOL      0.749646
      3 O1          2.5250    7.1170   -0.0460 o         1 MOL     -0.592290
      4 H1          0.2850    6.3500   -1.0380 hc        1 MOL      0.102362
      5 H2          0.8920    7.3260   -2.3980 hc        1 MOL      0.102362
      6 H3          1.0530    5.5530   -2.4320 hc        1 MOL      0.102362
      7 N1          3.5600    6.0670   -1.6830 n         1 MOL     -0.657755
      8 C3          4.8060    5.8680   -0.9890 c3        1 MOL      0.307603
      9 C4          4.8460    4.6540   -0.1160 c         1 MOL      0.628091
     10 O2          4.7700    3.5710   -0.7090 o         1 MOL     -0.567847
     11 C5          6.0110    6.0710   -1.9850 c3        1 MOL     -0.206191
     12 C6          7.3160    5.8060   -1.2450 c         1 MOL      0.744200
     13 O3          7.8450    6.5710   -0.4230 o         1 MOL     -0.740902
     14 O4          7.8700    4.7660   -1.6370 o         1 MOL     -0.740902
     15 H4          3.5570    5.7620   -2.6480 hn        1 MOL      0.304820
     16 H5          5.0520    6.6140   -0.2350 h1        1 MOL     -0.053631
     17 H6          6.0600    7.1180   -2.2830 hc        1 MOL      0.015578
     18 H7          5.9230    5.3630   -2.8150 hc        1 MOL      0.015578
     19 N2          5.0830    4.8080    1.2070 n         1 MOL     -0.676052
     20 C7          5.3730    3.6420    2.0280 c3        1 MOL      0.241426
     21 C8          4.0770    2.8980    2.3170 c         1 MOL      0.620523
     22 O5          2.9490    3.4410    2.2750 o         1 MOL     -0.595042
     23 C9          6.2390    3.9740    3.2950 c3        1 MOL     -0.186840
     24 H8          5.1110    5.7180    1.6320 hn        1 MOL      0.360510
     25 H9          5.9530    2.9890    1.3790 h1        1 MOL      0.099261
     26 H10         5.6180    4.4070    4.0810 hc        1 MOL      0.049700
     27 H11         6.6490    3.0450    3.6870 hc        1 MOL      0.049700
     28 H12         7.0280    4.6890    3.0660 hc        1 MOL      0.049700
     29 N3          4.1620    1.6020    2.5260 n         1 MOL     -0.475288
     30 C10         5.2360    0.6860    2.9530 c3        1 MOL     -0.113598
     31 C11         5.8540   -0.2170    1.8000 c         1 MOL      0.469528
     32 O6          5.2560   -0.4110    0.7330 o         1 MOL     -0.407715
     33 C12         4.6240   -0.3080    3.9450 c3        1 MOL     -0.023199
     34 C13         3.1750   -0.8580    3.5990 c         1 MOL      0.655902
     35 O7          2.1620   -0.1210    3.6340 o         1 MOL     -0.713150
     36 O8          3.0290   -1.9540    3.0850 o         1 MOL     -0.713150
     37 H13         3.2840    1.1050    2.6490 hn        1 MOL      0.260916
     38 H14         6.0530    1.1700    3.4890 h1        1 MOL      0.103075
     39 H15         4.5460    0.1160    4.9550 hc        1 MOL      0.014520
     40 H16         5.3330   -1.1220    4.0850 hc        1 MOL      0.014520
     41 N4          6.9650   -0.9030    2.0900 n         1 MOL     -0.406525
     42 C14         7.4630   -1.8810    1.1340 c3        1 MOL     -0.004806
     43 C15         8.5010   -1.3500    0.2020 c         1 MOL      0.525710
     44 O9          9.0250   -0.2530    0.4990 o         1 MOL     -0.510598
     45 H17         7.3270   -0.8410    3.0310 hn        1 MOL      0.289325
     46 H18         6.5320   -2.1920    0.6530 h1        1 MOL      0.064112
     47 H19         7.8800   -2.7480    1.6590 h1        1 MOL      0.064112
     48 N5          8.8690   -2.0360   -0.8950 n         1 MOL     -0.454574
     49 C16         8.0770   -3.0040   -1.6500 c3        1 MOL      0.000107
     50 C17         6.7340   -2.4090   -2.1440 c         1 MOL      0.661114
     51 O10         6.6780   -1.3920   -2.8720 o         1 MOL     -0.512217
     52 C18         8.9300   -3.4210   -2.8290 c3        1 MOL     -0.290758
     53 C19        10.1970   -4.0970   -2.4180 c         1 MOL      0.687832
     54 N6         11.2900   -3.3870   -2.5730 n         1 MOL     -0.816024
     55 O11        10.1770   -5.2940   -2.0510 o         1 MOL     -0.563057
     56 H20         9.7370   -1.6750   -1.2400 hn        1 MOL      0.284186
     57 H21         7.8360   -3.8480   -0.9930 h1        1 MOL      0.051738
     58 H22         9.1640   -2.5630   -3.4580 hc        1 MOL      0.098069
     59 H23         8.4610   -4.1230   -3.5150 hc        1 MOL      0.098069
     60 H24        11.1640   -2.4380   -2.8980 hn        1 MOL      0.381408
     61 H25        12.1660   -3.8920   -2.7080 hn        1 MOL      0.381408
     62 N7          5.6490   -3.1140   -1.8160 n         1 MOL     -0.441138
     63 C20         4.3340   -2.6920   -2.2990 c3        1 MOL     -0.117681
     64 C21         3.2070   -3.6120   -1.9680 c         1 MOL      0.552371
     65 O12         3.1320   -4.7770   -2.4240 o         1 MOL     -0.596728
     66 H26         5.6820   -3.9660   -1.2600 hn        1 MOL      0.286294
     67 H27         4.2310   -2.5680   -3.3850 h1        1 MOL      0.092909
     68 H28         4.0360   -1.7790   -1.7950 h1        1 MOL      0.092909
     69 N8          2.2090   -3.1810   -1.2490 n         1 MOL     -0.256997
     70 C22         0.9370   -4.0100   -0.9940 c3        1 MOL     -0.078046
     71 C23        -0.2710   -3.0850   -0.9960 c         1 MOL      0.318903
     72 O13        -0.1930   -1.8990   -0.7160 o         1 MOL     -0.435508
     73 C24         1.0530   -4.6710    0.3990 c3        1 MOL      0.436919
     74 C25         2.0760   -5.7780    0.5810 c3        1 MOL     -0.385293
     75 O14         1.2770   -3.7430    1.4460 oh        1 MOL     -0.621096
     76 H29         2.2350   -2.2130   -0.9660 hn        1 MOL      0.208532
     77 H30         0.8370   -4.8480   -1.6820 h1        1 MOL      0.112814
     78 H31         0.0720   -5.1260    0.5590 h1        1 MOL      0.007956
     79 H32         1.0520   -4.1750    2.2670 ho        1 MOL      0.380686
     80 H33         1.8920   -6.5430   -0.1750 hc        1 MOL      0.095220
     81 H34         3.0990   -5.4260    0.4220 hc        1 MOL      0.095220
     82 H35         2.0000   -6.2610    1.5540 hc        1 MOL      0.095220
     83 N9         -1.4680   -3.6160   -1.2660 n         1 MOL     -0.274579
     84 C26        -2.8090   -3.0290   -1.2600 c3        1 MOL     -0.087080
     85 C27        -3.3950   -3.5320    0.0460 c         1 MOL      0.291718
     86 O15        -3.2310   -4.6800    0.3970 o         1 MOL     -0.504323
     87 C28        -3.6030   -3.5670   -2.4350 c3        1 MOL      0.324843
     88 C29        -5.0070   -3.0330   -2.6180 c3        1 MOL     -0.094223
     89 C30        -2.8630   -3.3610   -3.7800 c3        1 MOL     -0.549460
     90 C31        -5.2950   -1.5580   -2.7290 c3        1 MOL     -0.055870
     91 H36        -1.5470   -4.6160   -1.3850 hn        1 MOL      0.228849
     92 H37        -2.7010   -1.9440   -1.2150 h1        1 MOL      0.196348
     93 H38        -3.7150   -4.6430   -2.3700 hc        1 MOL     -0.008874
     94 H39        -5.5430   -3.3930   -1.7400 hc        1 MOL      0.004428
     95 H40        -5.4040   -3.5660   -3.4810 hc        1 MOL      0.004428
     96 H41        -3.5910   -3.3470   -4.5880 hc        1 MOL      0.126873
     97 H42        -2.4500   -2.3600   -3.9020 hc        1 MOL      0.126873
     98 H43        -2.1560   -4.1670   -3.9770 hc        1 MOL      0.126873
     99 H44        -5.0130   -1.0090   -1.8270 hc        1 MOL      0.013748
    100 H45        -4.8510   -1.0790   -3.5930 hc        1 MOL      0.013748
    101 H46        -6.3710   -1.4350   -2.8890 hc        1 MOL      0.013748
    102 N10        -4.0290   -2.5890    0.7230 n         1 MOL     -0.018617
    103 C32        -4.7270   -2.7910    1.9480 c3        1 MOL     -0.007742
    104 C33        -6.0820   -2.0890    1.9540 c         1 MOL      0.488754
    105 O16        -7.0460   -2.5080    2.5870 o         1 MOL     -0.518835
    106 C34        -3.8190   -2.4000    3.1470 c3        1 MOL     -0.009384
    107 C35        -2.4880   -3.1770    3.0910 c         1 MOL      0.598900
    108 O17        -2.3600   -4.1830    3.7820 o         1 MOL     -0.662737
    109 O18        -1.5080   -2.6380    2.5300 o         1 MOL     -0.662737
    110 H47        -3.9150   -1.6210    0.4430 hn        1 MOL      0.039830
    111 H48        -5.0510   -3.8240    2.1130 h1        1 MOL      0.080662
    112 H49        -4.4150   -2.6640    4.0240 hc        1 MOL     -0.008435
    113 H50        -3.6280   -1.3340    3.2010 hc        1 MOL     -0.008435
    114 N11        -6.2280   -0.9840    1.0820 n         1 MOL     -0.598099
    115 C36        -7.5300   -0.2250    0.9390 c3        1 MOL      0.209145
    116 C37        -7.1830    1.2060    0.3630 c         1 MOL      0.214038
    117 O19        -7.4630    1.5000   -0.8270 o         1 MOL     -0.443547
    118 C38        -8.5060   -1.0050    0.0770 c3        1 MOL     -0.225427
    119 C39        -9.8430   -0.4790   -0.3940 ca        1 MOL      0.035290
    120 C40       -10.8390   -0.0270    0.5960 ca        1 MOL     -0.066484
    121 C41       -10.2250   -0.4610   -1.7670 ca        1 MOL     -0.066484
    122 C42       -12.1940    0.0940    0.2230 ca        1 MOL     -0.163982
    123 C43       -11.5830   -0.4410   -2.0310 ca        1 MOL     -0.163982
    124 C44       -12.5710   -0.1660   -1.1220 ca        1 MOL     -0.099348
    125 H51        -5.3960   -0.5580    0.7030 hn        1 MOL      0.395861
    126 H52        -8.0690   -0.1000    1.8860 h1        1 MOL      0.060384
    127 H53        -8.6530   -1.9710    0.5380 hc        1 MOL      0.110651
    128 H54        -7.9210   -1.3260   -0.7920 hc        1 MOL      0.110651
    129 H55       -10.5210   -0.0430    1.6180 ha        1 MOL      0.088437
    130 H56        -9.5130   -0.8530   -2.4830 ha        1 MOL      0.088437
    131 H57       -12.9780    0.2380    0.9450 ha        1 MOL      0.104930
    132 H58       -11.9060   -0.5160   -3.0590 ha        1 MOL      0.104930
    133 H59       -13.6250   -0.3340   -1.3020 ha        1 MOL      0.096673
    134 N12        -6.3420    1.9740    1.0640 n         1 MOL      0.004956
    135 C45        -5.9680    3.3620    0.7610 c3        1 MOL      0.068409
    136 C46        -5.1420    3.5670   -0.4350 c         1 MOL      0.158354
    137 O20        -5.1340    4.6370   -1.0860 o         1 MOL     -0.468965
    138 C47        -5.2410    3.9050    1.9920 c3        1 MOL     -0.058619
    139 C48        -5.9370    3.1410    3.1510 c3        1 MOL     -0.056764
    140 C49        -6.2290    1.7950    2.5070 c3        1 MOL      0.020058
    141 H60        -6.9250    3.8820    0.6430 h1        1 MOL      0.062043
    142 H61        -4.2110    3.5510    1.9130 hc        1 MOL      0.052753
    143 H62        -5.3940    4.9690    2.1840 hc        1 MOL      0.052753
    144 H63        -5.2230    2.9230    3.9520 hc        1 MOL      0.028218
    145 H64        -6.8270    3.5490    3.6480 hc        1 MOL      0.028218
    146 H65        -5.4290    1.0760    2.6680 h1        1 MOL      0.023655
    147 H66        -7.1280    1.4010    2.9680 h1        1 MOL      0.023655
    148 N13        -4.3670    2.5420   -0.8750 n         1 MOL      0.069947
    149 C50        -3.6610    2.6170   -2.1490 c3        1 MOL     -0.425544
    150 C51        -4.6970    2.7540   -3.3050 c         1 MOL      0.582363
    151 O21        -4.4260    3.4200   -4.3050 o         1 MOL     -0.565931
    152 C52        -2.7920    1.3860   -2.3830 c3        1 MOL      0.189731
    153 C53        -1.8190    1.1930   -1.2730 c3        1 MOL     -0.362868
    154 C54        -2.3190    0.4520   -0.0120 c         1 MOL      0.512189
    155 O22        -1.4690    0.0860    0.8140 o         1 MOL     -0.618576
    156 O23        -3.4950    0.0520    0.1040 o         1 MOL     -0.618576
    157 H67        -4.2490    1.6660   -0.3900 hn        1 MOL      0.163858
    158 H68        -3.0070    3.4780   -2.0870 h1        1 MOL      0.176373
    159 H69        -2.3580    1.4400   -3.3790 hc        1 MOL      0.008061
    160 H70        -3.4390    0.5390   -2.6100 hc        1 MOL      0.008061
    161 H71        -1.2330    2.0580   -0.9420 hc        1 MOL      0.112973
    162 H72        -1.0880    0.4340   -1.5580 hc        1 MOL      0.112973
    163 N14        -5.9330    2.2370   -3.1530 n         1 MOL     -0.189880
    164 C55        -6.8900    2.3110   -4.2920 c3        1 MOL     -0.172233
    165 H73        -7.9070    2.3840   -3.9080 h1        1 MOL      0.077726
    166 H74        -6.6660    3.1890   -4.8980 h1        1 MOL      0.077726
    167 H75        -6.7970    1.4130   -4.9030 h1        1 MOL      0.077726
    168 H76        -6.1400    1.6540   -2.3550 hn        1 MOL      0.172949
    169 Ca1         0.5360   -1.1320    1.8960 Ca        1 MOL      1.688411
    170 O24        -1.2190   -0.0660    3.5390 oh        1 MOL     -0.821822
    171 H77        -1.4430    0.7470    3.9940 ho        1 MOL      0.399864
    172 H78        -1.8350   -0.1140    2.8010 ho        1 MOL      0.399864
    173 O25         2.4650   -0.4230    0.3160 oh        1 MOL     -0.821822
    174 H79         3.3870   -0.6210    0.4670 ho        1 MOL      0.399864
    175 H80         2.4510    0.5130    0.0830 ho        1 MOL      0.399864
    176 O26         0.6840    1.6590    1.8750 oh        1 MOL     -0.821822
    177 H81         1.3280    2.3590    1.9230 ho        1 MOL      0.399864
    178 H82        -0.1470    2.0820    2.0570 ho        1 MOL      0.399864
@<TRIPOS>BOND
     1    1    2 1   
     2    1    4 1   
     3    1    5 1   
     4    1    6 1   
     5    2    3 2   
     6    2    7 1   
     7    7    8 1   
     8    7   15 1   
     9    8    9 1   
    10    8   11 1   
    11    8   16 1   
    12    9   10 2   
    13    9   19 1   
    14   11   12 1   
    15   11   17 1   
    16   11   18 1   
    17   12   13 1   
    18   12   14 1   
    19   19   20 1   
    20   19   24 1   
    21   20   21 1   
    22   20   23 1   
    23   20   25 1   
    24   21   22 2   
    25   21   29 1   
    26   23   26 1   
    27   23   27 1   
    28   23   28 1   
    29   29   30 1   
    30   29   37 1   
    31   30   31 1   
    32   30   33 1   
    33   30   38 1   
    34   31   32 2   
    35   31   41 1   
    36   33   34 1   
    37   33   39 1   
    38   33   40 1   
    39   34   35 1   
    40   34   36 1   
    41   41   42 1   
    42   41   45 1   
    43   42   43 1   
    44   42   46 1   
    45   42   47 1   
    46   43   44 2   
    47   43   48 1   
    48   48   49 1   
    49   48   56 1   
    50   49   50 1   
    51   49   52 1   
    52   49   57 1   
    53   50   51 2   
    54   50   62 1   
    55   52   53 1   
    56   52   58 1   
    57   52   59 1   
    58   53   54 1   
    59   53   55 2   
    60   54   60 1   
    61   54   61 1   
    62   62   63 1   
    63   62   66 1   
    64   63   64 1   
    65   63   67 1   
    66   63   68 1   
    67   64   65 2   
    68   64   69 1   
    69   69   70 1   
    70   69   76 1   
    71   70   71 1   
    72   70   73 1   
    73   70   77 1   
    74   71   72 2   
    75   71   83 1   
    76   73   74 1   
    77   73   75 1   
    78   73   78 1   
    79   74   80 1   
    80   74   81 1   
    81   74   82 1   
    82   75   79 1   
    83   83   84 1   
    84   83   91 1   
    85   84   85 1   
    86   84   87 1   
    87   84   92 1   
    88   85   86 2   
    89   85  102 1   
    90   87   88 1   
    91   87   89 1   
    92   87   93 1   
    93   88   90 1   
    94   88   94 1   
    95   88   95 1   
    96   89   96 1   
    97   89   97 1   
    98   89   98 1   
    99   90   99 1   
   100   90  100 1   
   101   90  101 1   
   102  102  103 1   
   103  102  110 1   
   104  103  104 1   
   105  103  106 1   
   106  103  111 1   
   107  104  105 2   
   108  104  114 1   
   109  106  107 1   
   110  106  112 1   
   111  106  113 1   
   112  107  108 1   
   113  107  109 1   
   114  114  115 1   
   115  114  125 1   
   116  115  116 1   
   117  115  118 1   
   118  115  126 1   
   119  116  117 2   
   120  116  134 1   
   121  118  119 1   
   122  118  127 1   
   123  118  128 1   
   124  119  120 ar  
   125  119  121 ar  
   126  120  122 ar  
   127  120  129 1   
   128  121  123 ar  
   129  121  130 1   
   130  122  124 ar  
   131  122  131 1   
   132  123  124 ar  
   133  123  132 1   
   134  124  133 1   
   135  134  135 1   
   136  134  140 1   
   137  135  136 1   
   138  135  138 1   
   139  135  141 1   
   140  136  137 2   
   141  136  148 1   
   142  138  139 1   
   143  138  142 1   
   144  138  143 1   
   145  139  140 1   
   146  139  144 1   
   147  139  145 1   
   148  140  146 1   
   149  140  147 1   
   150  148  149 1   
   151  148  157 1   
   152  149  150 1   
   153  149  152 1   
   154  149  158 1   
   155  150  151 2   
   156  150  163 1   
   157  152  153 1   
   158  152  159 1   
   159  152  160 1   
   160  153  154 1   
   161  153  161 1   
   162  153  162 1   
   163  154  155 1   
   164  154  156 1   
   165  163  164 1   
   166  163  168 1   
   167  164  165 1   
   168  164  166 1   
   169  164  167 1   
   170  170  171 1   
   171  170  172 1   
   172  173  174 1   
   173  173  175 1   
   174  176  177 1   
   175  176  178 1   
@<TRIPOS>SUBSTRUCTURE
     1 MOL         1 TEMP              0 ****  ****    0 ROOT
