@<TRIPOS>MOLECULE
MOL
  192   187     1     0     0
SMALL
resp


@<TRIPOS>ATOM
      1 C1         11.9180    5.5710   -2.2630 c3        1 MOL     -0.644748
      2 C2         11.7970    4.2530   -1.4680 c         1 MOL      0.897893
      3 O1         12.4480    3.2380   -1.7150 o         1 MOL     -0.626845
      4 H1         12.1260    6.3920   -1.5760 hc        1 MOL      0.162503
      5 H2         12.7310    5.4870   -2.9850 hc        1 MOL      0.162503
      6 H3         10.9830    5.7660   -2.7880 hc        1 MOL      0.162503
      7 N1         10.9600    4.2210   -0.4320 n         1 MOL     -0.523034
      8 C3         10.6250    3.0540    0.4900 c3        1 MOL     -0.179715
      9 C4          9.3380    2.2540    0.0500 c         1 MOL      0.713064
     10 O2          8.5060    2.8450   -0.5410 o         1 MOL     -0.705923
     11 C5         10.5400    3.4000    2.0200 c3        1 MOL     -0.184416
     12 C6          9.4880    4.4570    2.4960 c         1 MOL      0.823844
     13 O3          9.3390    4.7930    3.6920 o         1 MOL     -0.732844
     14 O4          8.7790    5.0080    1.5860 o         1 MOL     -0.732844
     15 H4         10.7970    5.0820    0.0730 hn        1 MOL      0.197284
     16 H5         11.4450    2.3610    0.3370 h1        1 MOL      0.116731
     17 H6         11.4870    3.8720    2.2870 hc        1 MOL      0.092759
     18 H7         10.5210    2.5430    2.6930 hc        1 MOL      0.092759
     19 N2          9.1740    0.9710    0.3570 n         1 MOL     -0.499775
     20 C7          8.2000    0.0260   -0.2270 c3        1 MOL      0.221812
     21 C8          7.2110   -0.3750    0.8540 c         1 MOL      0.509103
     22 O5          7.5170   -0.8440    1.9480 o         1 MOL     -0.493183
     23 C9          8.9170   -1.1400   -0.8890 c3        1 MOL     -0.193417
     24 C10         7.9840   -1.7090   -1.9530 c3        1 MOL     -0.233771
     25 C11         8.7380   -2.7250   -2.8170 c3        1 MOL      0.057974
     26 C12         7.7280   -3.3080   -3.7210 c3        1 MOL      0.086606
     27 N3          8.2260   -4.3150   -4.6400 n4        1 MOL     -0.259313
     28 H8          9.7500    0.5650    1.0830 hn        1 MOL      0.264998
     29 H9          7.6940    0.5250   -1.0500 h1        1 MOL      0.099076
     30 H10         9.0680   -1.9500   -0.1800 hc        1 MOL      0.093651
     31 H11         9.8600   -0.7670   -1.2760 hc        1 MOL      0.093651
     32 H12         7.6230   -0.8860   -2.5680 hc        1 MOL      0.107947
     33 H13         7.2900   -2.3810   -1.4560 hc        1 MOL      0.107947
     34 H14         9.2630   -3.5580   -2.3500 hc        1 MOL      0.018459
     35 H15         9.5150   -2.1290   -3.2930 hc        1 MOL      0.018459
     36 H16         7.1640   -2.5290   -4.2520 hx        1 MOL      0.043218
     37 H17         6.8610   -3.6670   -3.1540 hx        1 MOL      0.043218
     38 H18         8.8800   -3.8570   -5.2690 hn        1 MOL      0.252135
     39 H19         8.7560   -5.0030   -4.1230 hn        1 MOL      0.252135
     40 H20         7.5240   -4.7520   -5.2130 hn        1 MOL      0.252135
     41 N4          5.9310   -0.0480    0.5940 n         1 MOL     -0.672123
     42 C13         4.7840   -0.1580    1.5130 c3        1 MOL      0.566249
     43 C14         3.4670   -0.1480    0.6820 c         1 MOL      0.058449
     44 O6          3.4060    0.5530   -0.3320 o         1 MOL     -0.357660
     45 C15         4.7780    1.0670    2.4900 c3        1 MOL     -0.116322
     46 C16         5.3150    2.3820    1.9230 c         1 MOL      0.677147
     47 O7          4.4920    3.1010    1.2680 o         1 MOL     -0.728797
     48 O8          6.5380    2.8030    1.9730 o         1 MOL     -0.728797
     49 H21         5.7530    0.3750   -0.3020 hn        1 MOL      0.212052
     50 H22         4.7390   -1.0420    2.1520 h1        1 MOL      0.004652
     51 H23         5.4310    0.7090    3.2800 hc        1 MOL      0.041200
     52 H24         3.8360    1.0920    3.0450 hc        1 MOL      0.041200
     53 N5          2.3460   -0.7420    1.1740 n         1 MOL     -0.179651
     54 C17         2.1440   -1.5290    2.3310 c3        1 MOL     -0.190354
     55 C18         2.5910   -2.9960    2.2400 c         1 MOL      0.671130
     56 O9          3.2730   -3.3730    1.2840 o         1 MOL     -0.538744
     57 H25         1.5170   -0.6500    0.6050 hn        1 MOL      0.259322
     58 H26         1.0670   -1.6040    2.4440 h1        1 MOL      0.085231
     59 H27         2.5400   -1.0600    3.2370 h1        1 MOL      0.085231
     60 N6          2.3210   -3.8770    3.2130 n         1 MOL     -0.463996
     61 C19         2.5280   -5.3560    3.1240 c3        1 MOL      0.069292
     62 C20         1.5930   -6.1700    2.2390 c         1 MOL      0.455688
     63 O10         1.9960   -7.0420    1.4970 o         1 MOL     -0.522539
     64 C21         2.7500   -5.9980    4.5460 c3        1 MOL     -0.080355
     65 C22         3.5890   -5.0570    5.3550 c         1 MOL      0.680989
     66 O11         3.0060   -4.4930    6.3140 o         1 MOL     -0.650022
     67 O12         4.7900   -4.8660    5.0640 o         1 MOL     -0.650022
     68 H28         1.7740   -3.6170    4.0270 hn        1 MOL      0.255635
     69 H29         3.5090   -5.5240    2.6840 h1        1 MOL      0.069562
     70 H30         3.3220   -6.9240    4.4600 hc        1 MOL      0.003637
     71 H31         1.7740   -6.1740    5.0030 hc        1 MOL      0.003637
     72 N7          0.3300   -5.7580    2.2690 n         1 MOL     -0.298641
     73 C23        -0.6870   -6.2850    1.3390 c3        1 MOL     -0.216482
     74 C24        -0.6240   -5.6030   -0.0400 c         1 MOL      0.504371
     75 O13        -1.3250   -6.0620   -0.9440 o         1 MOL     -0.554312
     76 H32         0.0550   -5.0750    2.9620 hn        1 MOL      0.269593
     77 H33        -1.6450   -6.1280    1.8480 h1        1 MOL      0.136920
     78 H34        -0.6240   -7.3660    1.3240 h1        1 MOL      0.136920
     79 N8          0.2850   -4.6390   -0.2710 n         1 MOL     -0.134791
     80 C25         0.4320   -3.8970   -1.4930 c3        1 MOL      0.370323
     81 C26         0.0470   -2.4390   -1.1780 c         1 MOL      0.169438
     82 O14        -0.2020   -2.0600   -0.0050 o         1 MOL     -0.502289
     83 C27         1.7760   -4.0900   -2.0250 c3        1 MOL      0.236919
     84 C28         2.3580   -5.5260   -2.0820 c3        1 MOL     -0.578874
     85 O15         1.8120   -3.5840   -3.2730 oh        1 MOL     -0.630248
     86 H35         0.9530   -4.4130    0.4460 hn        1 MOL     -0.009516
     87 H36        -0.3400   -4.2480   -2.1780 h1        1 MOL     -0.005216
     88 H37         2.4310   -3.5610   -1.3350 h1        1 MOL      0.026854
     89 H38         2.6770   -3.6600   -3.6850 ho        1 MOL      0.407397
     90 H39         1.6270   -6.2110   -2.5200 hc        1 MOL      0.166456
     91 H40         3.3380   -5.5330   -2.5510 hc        1 MOL      0.166456
     92 H41         2.4410   -5.9800   -1.1010 hc        1 MOL      0.166456
     93 N9         -0.0120   -1.6520   -2.3040 n         1 MOL     -0.049888
     94 C29        -0.4700   -0.2080   -2.4500 c3        1 MOL     -0.071436
     95 C30        -1.9330    0.0710   -2.0100 c         1 MOL      0.475249
     96 O16        -2.1700    1.2000   -1.5070 o         1 MOL     -0.514967
     97 C31        -0.3750    0.2610   -3.9250 c3        1 MOL      0.146847
     98 C32         0.9130    0.1050   -4.7180 c3        1 MOL      0.205209
     99 C33        -0.6760    1.7820   -4.0960 c3        1 MOL     -0.471550
    100 C34         2.2100    0.1250   -4.0390 c3        1 MOL     -0.450983
    101 H42         0.2240   -2.1390   -3.1650 hn        1 MOL      0.139757
    102 H43         0.1810    0.4760   -1.9100 h1        1 MOL      0.094189
    103 H44        -1.1500   -0.2580   -4.4950 hc        1 MOL     -0.014799
    104 H45         0.9100    0.7470   -5.6090 hc        1 MOL     -0.026597
    105 H46         0.8540   -0.8260   -5.2760 hc        1 MOL     -0.026597
    106 H47         0.1010    2.3970   -3.6370 hc        1 MOL      0.131078
    107 H48        -0.7850    2.0030   -5.1600 hc        1 MOL      0.131078
    108 H49        -1.6990    2.0140   -3.7890 hc        1 MOL      0.131078
    109 H50         2.4280    1.1290   -3.6770 hc        1 MOL      0.096070
    110 H51         2.0890   -0.4750   -3.1320 hc        1 MOL      0.096070
    111 H52         2.9180   -0.1620   -4.8200 hc        1 MOL      0.096070
    112 N10        -2.8360   -0.8920   -2.0740 n         1 MOL     -0.340268
    113 C35        -4.0420   -1.0090   -1.2120 c3        1 MOL     -0.156153
    114 C36        -5.2310   -1.7320   -1.9040 c         1 MOL      0.689144
    115 O17        -5.1030   -2.5000   -2.8230 o         1 MOL     -0.525034
    116 C37        -3.7820   -1.8820    0.0590 c3        1 MOL      0.391985
    117 C38        -3.4400   -3.3420   -0.3250 c3        1 MOL     -0.243477
    118 O18        -2.6630   -1.4800    0.8670 oh        1 MOL     -0.687576
    119 H53        -2.4900   -1.6680   -2.6200 hn        1 MOL      0.209919
    120 H54        -4.3700   -0.0210   -0.8720 h1        1 MOL      0.116488
    121 H55        -4.7090   -1.9100    0.6330 h1        1 MOL      0.030537
    122 H56        -1.8160   -1.4980    0.4140 ho        1 MOL      0.464965
    123 H57        -4.2980   -3.9310   -0.6170 hc        1 MOL      0.052897
    124 H58        -2.6870   -3.3630   -1.1160 hc        1 MOL      0.052897
    125 H59        -2.9980   -3.8930    0.5100 hc        1 MOL      0.052897
    126 N11        -6.4000   -1.4250   -1.3190 n         1 MOL     -0.643408
    127 C39        -7.6620   -1.9820   -1.7710 c3        1 MOL      0.003620
    128 C40        -8.8120   -0.9660   -1.9380 c         1 MOL      0.700221
    129 O19        -9.5100   -0.9220   -2.9290 o         1 MOL     -0.559429
    130 C41        -8.0800   -3.2350   -0.9360 c3        1 MOL      0.239067
    131 C42        -9.3600   -3.8170   -1.3310 c3        1 MOL     -0.484006
    132 O20        -8.2560   -2.8640    0.3680 oh        1 MOL     -0.645950
    133 H60        -6.3960   -0.9650   -0.4170 hn        1 MOL      0.337548
    134 H61        -7.5690   -2.3400   -2.7990 h1        1 MOL      0.102828
    135 H62        -7.3860   -4.0700   -0.8880 h1        1 MOL      0.079035
    136 H63        -8.4480   -3.6410    0.9000 ho        1 MOL      0.422046
    137 H64        -9.5790   -4.6950   -0.7310 hc        1 MOL      0.125768
    138 H65       -10.2170   -3.1370   -1.3360 hc        1 MOL      0.125768
    139 H66        -9.3220   -4.0190   -2.3990 hc        1 MOL      0.125768
    140 N12        -8.9410   -0.1710   -0.8570 n         1 MOL     -0.511309
    141 C43        -9.8740    0.9960   -0.7760 c3        1 MOL      0.041150
    142 C44        -9.5060    2.0210    0.2630 c         1 MOL      0.568776
    143 O21        -8.8160    1.7010    1.2390 o         1 MOL     -0.519873
    144 C45       -11.3140    0.5200   -0.5040 c3        1 MOL     -0.204425
    145 C46       -11.5540   -0.4660    0.6430 c3        1 MOL      0.041455
    146 C47       -13.0630   -0.7480    1.0220 c3        1 MOL     -0.036347
    147 C48       -13.1880   -2.0120    1.8520 c3        1 MOL      0.047929
    148 N13       -14.5820   -2.5110    1.9200 n4        1 MOL     -0.225213
    149 H67        -8.2060   -0.2180   -0.1710 hn        1 MOL      0.276848
    150 H68        -9.8840    1.5350   -1.7230 h1        1 MOL      0.071475
    151 H69       -11.7250    0.0910   -1.4180 hc        1 MOL      0.069734
    152 H70       -11.9000    1.4170   -0.3390 hc        1 MOL      0.069734
    153 H71       -11.0600   -0.0150    1.5040 hc        1 MOL      0.029215
    154 H72       -11.0270   -1.3840    0.3940 hc        1 MOL      0.029215
    155 H73       -13.5830   -0.8310    0.0650 hc        1 MOL      0.039014
    156 H74       -13.3690    0.1350    1.5790 hc        1 MOL      0.039014
    157 H75       -12.8370   -1.7530    2.8470 hx        1 MOL      0.068033
    158 H76       -12.6140   -2.8490    1.4470 hx        1 MOL      0.068033
    159 H77       -14.8720   -2.8650    1.0180 hn        1 MOL      0.241234
    160 H78       -14.6110   -3.3230    2.5210 hn        1 MOL      0.241234
    161 H79       -15.2120   -1.7640    2.1820 hn        1 MOL      0.241234
    162 N14        -9.8910    3.2180    0.0140 n         1 MOL     -0.372423
    163 C49        -9.7700    4.2450    1.0870 c3        1 MOL      0.163092
    164 C50        -8.3230    4.4730    1.5560 c         1 MOL      0.299395
    165 O22        -8.0980    4.5300    2.7450 o         1 MOL     -0.497167
    166 C51       -10.6280    5.4190    0.5480 c3        1 MOL     -0.012099
    167 C52       -10.7260    6.6350    1.5130 c3        1 MOL     -0.141042
    168 C53       -11.4120    7.7950    0.8560 c         1 MOL      0.668584
    169 O23       -12.6620    7.7490    0.6760 o         1 MOL     -0.647495
    170 O24       -10.6720    8.7790    0.5240 o         1 MOL     -0.647495
    171 H80       -10.5650    3.4050   -0.7090 hn        1 MOL      0.230142
    172 H81       -10.3190    3.8080    1.9270 h1        1 MOL      0.041287
    173 H82       -11.6500    5.0830    0.3730 hc        1 MOL      0.008682
    174 H83       -10.1330    5.7030   -0.3830 hc        1 MOL      0.008682
    175 H84        -9.7000    6.9580    1.7080 hc        1 MOL      0.036425
    176 H85       -11.2840    6.3520    2.4020 hc        1 MOL      0.036425
    177 N15        -7.3210    4.5290    0.6550 n         1 MOL     -0.189648
    178 C54        -7.3560    4.5560   -0.8100 c3        1 MOL     -0.220729
    179 H86        -7.8890    3.6790   -1.1760 h1        1 MOL      0.095920
    180 H87        -7.8680    5.4570   -1.1450 h1        1 MOL      0.095920
    181 H88        -6.3370    4.5500   -1.1980 h1        1 MOL      0.095920
    182 H89        -6.4270    4.5400    1.1200 hn        1 MOL      0.253475
    183 Ca1         6.5420    4.5210    0.1400 Ca        1 MOL      1.738233
    184 O25         5.2360    6.2750    1.7440 oh        1 MOL     -0.857158
    185 H90         4.5030    6.8810    1.7310 ho        1 MOL      0.427343
    186 H91         5.7030    6.4850    2.5580 ho        1 MOL      0.427343
    187 O26         5.8240    2.8700   -1.8190 oh        1 MOL     -0.857158
    188 H92         5.3880    2.1540   -2.2660 ho        1 MOL      0.427343
    189 H93         6.3250    3.3090   -2.5050 ho        1 MOL      0.427343
    190 O27         4.3900    5.3920   -1.2480 oh        1 MOL     -0.857158
    191 H94         3.6220    4.8280   -1.1610 ho        1 MOL      0.427343
    192 H95         4.0470    6.2850   -1.1990 ho        1 MOL      0.427343
@<TRIPOS>BOND
     1    1    2 1   
     2    1    4 1   
     3    1    5 1   
     4    1    6 1   
     5    2    3 2   
     6    2    7 1   
     7    7    8 1   
     8    7   15 1   
     9    8    9 1   
    10    8   11 1   
    11    8   16 1   
    12    9   10 2   
    13    9   19 1   
    14   11   12 1   
    15   11   17 1   
    16   11   18 1   
    17   12   13 1   
    18   12   14 1   
    19   19   20 1   
    20   19   28 1   
    21   20   21 1   
    22   20   23 1   
    23   20   29 1   
    24   21   22 2   
    25   21   41 1   
    26   23   24 1   
    27   23   30 1   
    28   23   31 1   
    29   24   25 1   
    30   24   32 1   
    31   24   33 1   
    32   25   26 1   
    33   25   34 1   
    34   25   35 1   
    35   26   27 1   
    36   26   36 1   
    37   26   37 1   
    38   27   38 1   
    39   27   39 1   
    40   27   40 1   
    41   41   42 1   
    42   41   49 1   
    43   42   43 1   
    44   42   45 1   
    45   42   50 1   
    46   43   44 2   
    47   43   53 1   
    48   45   46 1   
    49   45   51 1   
    50   45   52 1   
    51   46   47 1   
    52   46   48 1   
    53   53   54 1   
    54   53   57 1   
    55   54   55 1   
    56   54   58 1   
    57   54   59 1   
    58   55   56 2   
    59   55   60 1   
    60   60   61 1   
    61   60   68 1   
    62   61   62 1   
    63   61   64 1   
    64   61   69 1   
    65   62   63 2   
    66   62   72 1   
    67   64   65 1   
    68   64   70 1   
    69   64   71 1   
    70   65   66 1   
    71   65   67 1   
    72   72   73 1   
    73   72   76 1   
    74   73   74 1   
    75   73   77 1   
    76   73   78 1   
    77   74   75 2   
    78   74   79 1   
    79   79   80 1   
    80   79   86 1   
    81   80   81 1   
    82   80   83 1   
    83   80   87 1   
    84   81   82 2   
    85   81   93 1   
    86   83   84 1   
    87   83   85 1   
    88   83   88 1   
    89   84   90 1   
    90   84   91 1   
    91   84   92 1   
    92   85   89 1   
    93   93   94 1   
    94   93  101 1   
    95   94   95 1   
    96   94   97 1   
    97   94  102 1   
    98   95   96 2   
    99   95  112 1   
   100   97   98 1   
   101   97   99 1   
   102   97  103 1   
   103   98  100 1   
   104   98  104 1   
   105   98  105 1   
   106   99  106 1   
   107   99  107 1   
   108   99  108 1   
   109  100  109 1   
   110  100  110 1   
   111  100  111 1   
   112  112  113 1   
   113  112  119 1   
   114  113  114 1   
   115  113  116 1   
   116  113  120 1   
   117  114  115 2   
   118  114  126 1   
   119  116  117 1   
   120  116  118 1   
   121  116  121 1   
   122  117  123 1   
   123  117  124 1   
   124  117  125 1   
   125  118  122 1   
   126  126  127 1   
   127  126  133 1   
   128  127  128 1   
   129  127  130 1   
   130  127  134 1   
   131  128  129 2   
   132  128  140 1   
   133  130  131 1   
   134  130  132 1   
   135  130  135 1   
   136  131  137 1   
   137  131  138 1   
   138  131  139 1   
   139  132  136 1   
   140  140  141 1   
   141  140  149 1   
   142  141  142 1   
   143  141  144 1   
   144  141  150 1   
   145  142  143 2   
   146  142  162 1   
   147  144  145 1   
   148  144  151 1   
   149  144  152 1   
   150  145  146 1   
   151  145  153 1   
   152  145  154 1   
   153  146  147 1   
   154  146  155 1   
   155  146  156 1   
   156  147  148 1   
   157  147  157 1   
   158  147  158 1   
   159  148  159 1   
   160  148  160 1   
   161  148  161 1   
   162  162  163 1   
   163  162  171 1   
   164  163  164 1   
   165  163  166 1   
   166  163  172 1   
   167  164  165 2   
   168  164  177 1   
   169  166  167 1   
   170  166  173 1   
   171  166  174 1   
   172  167  168 1   
   173  167  175 1   
   174  167  176 1   
   175  168  169 1   
   176  168  170 1   
   177  177  178 1   
   178  177  182 1   
   179  178  179 1   
   180  178  180 1   
   181  178  181 1   
   182  184  185 1   
   183  184  186 1   
   184  187  188 1   
   185  187  189 1   
   186  190  191 1   
   187  190  192 1   
@<TRIPOS>SUBSTRUCTURE
     1 MOL         1 TEMP              0 ****  ****    0 ROOT
