@<TRIPOS>MOLECULE
MOL
  178   175     1     0     0
SMALL
resp


@<TRIPOS>ATOM
      1 C1          2.3000   -2.1030    4.4100 c3        1 MOL     -0.313230
      2 C2          3.3510   -1.0750    3.8590 c         1 MOL      0.640030
      3 O1          3.1180   -0.4370    2.8060 o         1 MOL     -0.595189
      4 H1          1.6090   -1.5910    5.0790 hc        1 MOL      0.078428
      5 H2          1.7450   -2.5370    3.5780 hc        1 MOL      0.078428
      6 H3          2.8160   -2.8930    4.9550 hc        1 MOL      0.078428
      7 N1          4.4920   -0.8760    4.4790 n         1 MOL     -0.614050
      8 C3          5.6420   -0.0640    4.0400 c3        1 MOL      0.627481
      9 C4          6.3890   -0.6720    2.8210 c         1 MOL      0.375303
     10 O2          7.0660    0.0300    2.0540 o         1 MOL     -0.499405
     11 C5          6.5360    0.0960    5.3000 c3        1 MOL     -0.231850
     12 C6          7.6460    1.2150    5.2630 c         1 MOL      0.754009
     13 O3          7.4000    2.2200    4.5630 o         1 MOL     -0.737229
     14 O4          8.7120    1.0470    5.9370 o         1 MOL     -0.737229
     15 H4          4.5510   -1.2220    5.4280 hn        1 MOL      0.262404
     16 H5          5.2530    0.9120    3.7560 h1        1 MOL     -0.073717
     17 H6          7.0430   -0.8630    5.3890 hc        1 MOL     -0.029188
     18 H7          5.8760    0.3320    6.1320 hc        1 MOL     -0.029188
     19 N2          6.3390   -1.9820    2.6920 n         1 MOL     -0.520722
     20 C7          7.1380   -2.7720    1.6800 c3        1 MOL      0.439671
     21 C8          6.8990   -2.5610    0.1250 c         1 MOL      0.315585
     22 O5          7.9060   -2.3620   -0.5820 o         1 MOL     -0.456789
     23 C9          8.5650   -2.6900    2.0880 c3        1 MOL     -0.364315
     24 H8          5.9040   -2.5230    3.4270 hn        1 MOL      0.234987
     25 H9          6.9260   -3.8310    1.7160 h1        1 MOL     -0.039276
     26 H10         8.9600   -1.7060    1.8230 hc        1 MOL      0.087924
     27 H11         8.6090   -2.9980    3.1360 hc        1 MOL      0.087924
     28 H12         9.2050   -3.3780    1.5450 hc        1 MOL      0.087924
     29 N3          5.5960   -2.6960   -0.2390 n         1 MOL     -0.519010
     30 C10         5.1100   -2.4510   -1.6370 c3        1 MOL      0.355200
     31 C11         5.7540   -1.2250   -2.2540 c         1 MOL      0.257613
     32 O6          6.1660   -1.2340   -3.3750 o         1 MOL     -0.436322
     33 C12         5.1990   -3.6710   -2.4910 c3        1 MOL      0.041567
     34 C13         4.3150   -3.7250   -3.7840 c         1 MOL      0.502701
     35 O7          4.6890   -4.4690   -4.7450 o         1 MOL     -0.664296
     36 O8          3.1870   -3.1460   -3.7180 o         1 MOL     -0.664296
     37 H13         4.9650   -2.9400    0.4980 hn        1 MOL      0.296291
     38 H14         4.0450   -2.2460   -1.4970 h1        1 MOL      0.009243
     39 H15         4.8110   -4.5000   -1.8970 hc        1 MOL     -0.037423
     40 H16         6.2390   -3.8770   -2.7230 hc        1 MOL     -0.037423
     41 N4          5.6860   -0.0880   -1.5230 n         1 MOL     -0.087830
     42 C14         6.0510    1.2210   -2.0730 c3        1 MOL     -0.117640
     43 C15         4.9890    2.0040   -2.8880 c         1 MOL      0.528903
     44 O9          5.2990    2.9870   -3.6270 o         1 MOL     -0.583025
     45 H17         5.4230   -0.0850   -0.5500 hn        1 MOL      0.197163
     46 H18         6.9280    1.0360   -2.6840 h1        1 MOL      0.077820
     47 H19         6.3260    1.8490   -1.2190 h1        1 MOL      0.077820
     48 N5          3.7760    1.6020   -2.6870 n         1 MOL     -0.182332
     49 C16         2.5670    2.3020   -3.1110 c3        1 MOL     -0.041027
     50 C17         2.4380    3.6560   -2.4720 c         1 MOL      0.611493
     51 O10         2.8500    3.9330   -1.3190 o         1 MOL     -0.530487
     52 C18         1.3070    1.5460   -2.6340 c3        1 MOL     -0.599334
     53 C19         1.1330    0.3920   -3.6210 c         1 MOL      0.857922
     54 N6          0.7090    0.6380   -4.8270 n         1 MOL     -0.758620
     55 O11         1.4510   -0.7220   -3.2740 o         1 MOL     -0.696924
     56 H20         3.6690    0.9040   -1.9640 hn        1 MOL      0.164621
     57 H21         2.4780    2.4060   -4.1930 h1        1 MOL      0.041835
     58 H22         0.3970    2.1370   -2.7190 hc        1 MOL      0.239347
     59 H23         1.4900    1.0670   -1.6720 hc        1 MOL      0.239347
     60 H24         0.5810    1.6190   -5.0490 hn        1 MOL      0.335529
     61 H25         0.4350    0.0000   -5.5610 hn        1 MOL      0.335529
     62 N7          1.8830    4.5540   -3.2870 n         1 MOL     -0.491869
     63 C20         1.5290    5.9300   -2.8740 c3        1 MOL     -0.002054
     64 C21         0.1190    6.2570   -2.4060 c         1 MOL      0.428486
     65 O12        -0.8560    5.7670   -3.0110 o         1 MOL     -0.503728
     66 H26         1.6350    4.2150   -4.2110 hn        1 MOL      0.292021
     67 H27         1.8760    6.6390   -3.6200 h1        1 MOL      0.087539
     68 H28         2.2060    6.2530   -2.0810 h1        1 MOL      0.087539
     69 N8         -0.0330    7.0230   -1.3550 n         1 MOL     -0.499801
     70 C22        -1.3950    7.4220   -0.8030 c3        1 MOL      0.026000
     71 C23        -2.0690    6.2790   -0.1520 c         1 MOL      0.478569
     72 O13        -3.2600    6.0300   -0.3400 o         1 MOL     -0.535582
     73 C24        -1.2710    8.5900    0.1880 c3        1 MOL      0.256450
     74 C25        -2.5870    9.0460    0.7460 c3        1 MOL     -0.357129
     75 O14        -0.5220    8.2140    1.2780 oh        1 MOL     -0.583809
     76 H29         0.7330    7.5400   -0.9610 hn        1 MOL      0.302024
     77 H30        -2.0800    7.7320   -1.5890 h1        1 MOL      0.113907
     78 H31        -0.8250    9.4470   -0.3180 h1        1 MOL      0.006838
     79 H32        -0.4380    8.9720    1.8540 ho        1 MOL      0.407899
     80 H33        -2.8590    8.2170    1.4000 hc        1 MOL      0.095909
     81 H34        -2.4420    9.8550    1.4640 hc        1 MOL      0.095909
     82 H35        -3.3270    9.2230   -0.0420 hc        1 MOL      0.095909
     83 N9         -1.2390    5.3890    0.4770 n         1 MOL     -0.155391
     84 C26        -1.7020    4.1680    1.0870 c3        1 MOL     -0.006449
     85 C27        -1.6420    2.9750    0.1480 c         1 MOL      0.441625
     86 O15        -1.1030    3.0470   -0.9840 o         1 MOL     -0.408148
     87 C28        -0.8810    3.9130    2.3700 c3        1 MOL      0.172657
     88 C29         0.6340    4.0890    2.1470 c3        1 MOL     -0.225256
     89 C30        -1.1880    5.0000    3.3840 c3        1 MOL     -0.449188
     90 C31         1.4720    3.0810    2.9980 c3        1 MOL     -0.118422
     91 H36        -0.3610    5.7370    0.8190 hn        1 MOL      0.159529
     92 H37        -2.7250    4.2360    1.4290 h1        1 MOL      0.021196
     93 H38        -1.1250    2.9550    2.8310 hc        1 MOL      0.025673
     94 H39         0.9090    5.1430    2.2460 hc        1 MOL      0.108134
     95 H40         0.8320    3.7640    1.1310 hc        1 MOL      0.108134
     96 H41        -0.6540    4.8160    4.3100 hc        1 MOL      0.101148
     97 H42        -0.9030    5.9670    2.9620 hc        1 MOL      0.101148
     98 H43        -2.2440    5.0000    3.6590 hc        1 MOL      0.101148
     99 H44         2.5260    3.1480    2.7210 hc        1 MOL      0.059772
    100 H45         1.5300    3.3810    4.0470 hc        1 MOL      0.059772
    101 H46         1.1130    2.0640    2.8280 hc        1 MOL      0.059772
    102 N10        -2.1560    1.8320    0.6070 n         1 MOL     -0.400587
    103 C32        -2.1090    0.5860   -0.1430 c3        1 MOL      0.069156
    104 C33        -3.4100   -0.2530   -0.0920 c         1 MOL      0.567877
    105 O16        -3.4960   -1.4600   -0.0460 o         1 MOL     -0.520580
    106 C34        -0.8470   -0.2750    0.1670 c3        1 MOL     -0.304216
    107 C35        -0.2910   -1.3590   -0.8380 c         1 MOL      0.923140
    108 O17         0.8260   -1.8410   -0.6140 o         1 MOL     -0.796825
    109 O18        -0.8460   -1.6050   -1.9370 o         1 MOL     -0.796825
    110 H47        -2.4650    1.7890    1.5640 hn        1 MOL      0.247553
    111 H48        -1.9690    0.8510   -1.1850 h1        1 MOL      0.013010
    112 H49        -1.0410   -0.8070    1.1000 hc        1 MOL      0.083697
    113 H50         0.0370    0.3470    0.2630 hc        1 MOL      0.083697
    114 N11        -4.5170    0.5210    0.0010 n         1 MOL     -0.485920
    115 C36        -5.8870   -0.0530   -0.3040 c3        1 MOL      0.255077
    116 C37        -6.2310   -1.0680    0.8060 c         1 MOL      0.007223
    117 O19        -6.1300   -0.7950    1.9780 o         1 MOL     -0.414241
    118 C38        -6.9400    1.0580   -0.3630 c3        1 MOL     -0.435454
    119 C39        -8.3690    0.5950   -0.6750 ca        1 MOL      0.186110
    120 C40        -8.8550    0.4250   -1.9600 ca        1 MOL     -0.229626
    121 C41        -9.1910    0.3660    0.4830 ca        1 MOL     -0.229626
    122 C42       -10.2720    0.0440   -2.0770 ca        1 MOL     -0.057516
    123 C43       -10.5100   -0.0930    0.2950 ca        1 MOL     -0.057516
    124 C44       -11.0650   -0.1900   -0.9660 ca        1 MOL     -0.151762
    125 H51        -4.4800    1.5250   -0.0290 hn        1 MOL      0.267827
    126 H52        -5.7000   -0.5350   -1.2680 h1        1 MOL      0.041853
    127 H53        -6.5460    1.8060   -1.0390 hc        1 MOL      0.162945
    128 H54        -6.9810    1.5040    0.6430 hc        1 MOL      0.162945
    129 H55        -8.1930    0.5890   -2.7980 ha        1 MOL      0.151851
    130 H56        -8.8750    0.4810    1.5020 ha        1 MOL      0.151851
    131 H57       -10.7270   -0.0230   -3.0460 ha        1 MOL      0.093501
    132 H58       -11.0840   -0.2780    1.2010 ha        1 MOL      0.093501
    133 H59       -12.0750   -0.5580   -1.0850 ha        1 MOL      0.108545
    134 N12        -6.6610   -2.2720    0.4460 n         1 MOL      0.318343
    135 C45        -6.9420   -3.3980    1.2920 c3        1 MOL     -0.248762
    136 C46        -5.7950   -3.8140    2.2970 c         1 MOL      0.355991
    137 O20        -6.0230   -4.3660    3.3710 o         1 MOL     -0.483515
    138 C47        -7.3050   -4.6340    0.4260 c3        1 MOL      0.130779
    139 C48        -7.4200   -4.0550   -1.0300 c3        1 MOL     -0.310497
    140 C49        -6.7990   -2.7090   -0.9310 c3        1 MOL      0.092099
    141 H60        -7.8210   -3.2530    1.9120 h1        1 MOL      0.092722
    142 H61        -6.5200   -5.3880    0.3670 hc        1 MOL      0.011381
    143 H62        -8.2120   -5.1640    0.7440 hc        1 MOL      0.011381
    144 H63        -6.7640   -4.6500   -1.6610 hc        1 MOL      0.088270
    145 H64        -8.4540   -4.0550   -1.3710 hc        1 MOL      0.088270
    146 H65        -5.7870   -2.6350   -1.3110 h1        1 MOL     -0.002558
    147 H66        -7.4680   -2.0060   -1.4400 h1        1 MOL     -0.002558
    148 N13        -4.5410   -3.5190    1.9370 n         1 MOL     -0.080212
    149 C50        -3.3950   -3.7600    2.8170 c3        1 MOL     -0.485216
    150 C51        -3.3490   -2.7090    3.9010 c         1 MOL      0.531679
    151 O21        -3.2340   -3.0760    5.0690 o         1 MOL     -0.544349
    152 C52        -2.0750   -3.8570    1.9470 c3        1 MOL      0.348869
    153 C53        -1.9550   -5.0120    1.0060 c3        1 MOL     -0.168456
    154 C54        -0.7290   -4.9310    0.0570 c         1 MOL      0.837065
    155 O22        -0.8930   -4.3960   -0.9900 o         1 MOL     -0.781184
    156 O23         0.3700   -5.4310    0.4230 o         1 MOL     -0.781184
    157 H67        -4.3560   -3.0370    1.0740 hn        1 MOL      0.254370
    158 H68        -3.4740   -4.6550    3.4310 h1        1 MOL      0.182743
    159 H69        -1.2410   -3.9580    2.6400 hc        1 MOL     -0.029022
    160 H70        -1.9390   -2.9140    1.4010 hc        1 MOL     -0.029022
    161 H71        -2.7970   -5.0110    0.3230 hc        1 MOL     -0.020387
    162 H72        -1.8000   -5.9500    1.5440 hc        1 MOL     -0.020387
    163 N14        -3.6460   -1.4500    3.6010 n         1 MOL     -0.204553
    164 C55        -3.7580   -0.3760    4.6000 c3        1 MOL     -0.192372
    165 H73        -3.8880   -0.8130    5.5900 h1        1 MOL      0.085715
    166 H74        -2.8510    0.2290    4.5880 h1        1 MOL      0.085715
    167 H75        -4.6170    0.2520    4.3650 h1        1 MOL      0.085715
    168 H76        -4.0680   -1.3520    2.6980 hn        1 MOL      0.220327
    169 Ca1         0.7990   -3.2410   -2.8800 Ca        1 MOL      1.785148
    170 O24         0.0930   -2.6410   -5.3750 oh        1 MOL     -0.872772
    171 H77         0.2870   -3.3180   -6.0230 ho        1 MOL      0.421053
    172 H78        -0.3140   -1.9400   -5.8780 ho        1 MOL      0.421053
    173 O25         0.6410   -5.3850   -4.2970 oh        1 MOL     -0.872772
    174 H79         1.2570   -5.3640   -5.0380 ho        1 MOL      0.421053
    175 H80         0.3410   -6.2870   -4.2610 ho        1 MOL      0.421053
    176 O26         2.2580   -4.9170   -1.5350 oh        1 MOL     -0.872772
    177 H81         1.6270   -5.4020   -1.0020 ho        1 MOL      0.421053
    178 H82         3.0590   -5.4490   -1.4800 ho        1 MOL      0.421053
@<TRIPOS>BOND
     1    1    2 1   
     2    1    4 1   
     3    1    5 1   
     4    1    6 1   
     5    2    3 2   
     6    2    7 1   
     7    7    8 1   
     8    7   15 1   
     9    8    9 1   
    10    8   11 1   
    11    8   16 1   
    12    9   10 2   
    13    9   19 1   
    14   11   12 1   
    15   11   17 1   
    16   11   18 1   
    17   12   13 1   
    18   12   14 1   
    19   19   20 1   
    20   19   24 1   
    21   20   21 1   
    22   20   23 1   
    23   20   25 1   
    24   21   22 2   
    25   21   29 1   
    26   23   26 1   
    27   23   27 1   
    28   23   28 1   
    29   29   30 1   
    30   29   37 1   
    31   30   31 1   
    32   30   33 1   
    33   30   38 1   
    34   31   32 2   
    35   31   41 1   
    36   33   34 1   
    37   33   39 1   
    38   33   40 1   
    39   34   35 1   
    40   34   36 1   
    41   41   42 1   
    42   41   45 1   
    43   42   43 1   
    44   42   46 1   
    45   42   47 1   
    46   43   44 2   
    47   43   48 1   
    48   48   49 1   
    49   48   56 1   
    50   49   50 1   
    51   49   52 1   
    52   49   57 1   
    53   50   51 2   
    54   50   62 1   
    55   52   53 1   
    56   52   58 1   
    57   52   59 1   
    58   53   54 1   
    59   53   55 2   
    60   54   60 1   
    61   54   61 1   
    62   62   63 1   
    63   62   66 1   
    64   63   64 1   
    65   63   67 1   
    66   63   68 1   
    67   64   65 2   
    68   64   69 1   
    69   69   70 1   
    70   69   76 1   
    71   70   71 1   
    72   70   73 1   
    73   70   77 1   
    74   71   72 2   
    75   71   83 1   
    76   73   74 1   
    77   73   75 1   
    78   73   78 1   
    79   74   80 1   
    80   74   81 1   
    81   74   82 1   
    82   75   79 1   
    83   83   84 1   
    84   83   91 1   
    85   84   85 1   
    86   84   87 1   
    87   84   92 1   
    88   85   86 2   
    89   85  102 1   
    90   87   88 1   
    91   87   89 1   
    92   87   93 1   
    93   88   90 1   
    94   88   94 1   
    95   88   95 1   
    96   89   96 1   
    97   89   97 1   
    98   89   98 1   
    99   90   99 1   
   100   90  100 1   
   101   90  101 1   
   102  102  103 1   
   103  102  110 1   
   104  103  104 1   
   105  103  106 1   
   106  103  111 1   
   107  104  105 2   
   108  104  114 1   
   109  106  107 1   
   110  106  112 1   
   111  106  113 1   
   112  107  108 1   
   113  107  109 1   
   114  114  115 1   
   115  114  125 1   
   116  115  116 1   
   117  115  118 1   
   118  115  126 1   
   119  116  117 2   
   120  116  134 1   
   121  118  119 1   
   122  118  127 1   
   123  118  128 1   
   124  119  120 ar  
   125  119  121 ar  
   126  120  122 ar  
   127  120  129 1   
   128  121  123 ar  
   129  121  130 1   
   130  122  124 ar  
   131  122  131 1   
   132  123  124 ar  
   133  123  132 1   
   134  124  133 1   
   135  134  135 1   
   136  134  140 1   
   137  135  136 1   
   138  135  138 1   
   139  135  141 1   
   140  136  137 2   
   141  136  148 1   
   142  138  139 1   
   143  138  142 1   
   144  138  143 1   
   145  139  140 1   
   146  139  144 1   
   147  139  145 1   
   148  140  146 1   
   149  140  147 1   
   150  148  149 1   
   151  148  157 1   
   152  149  150 1   
   153  149  152 1   
   154  149  158 1   
   155  150  151 2   
   156  150  163 1   
   157  152  153 1   
   158  152  159 1   
   159  152  160 1   
   160  153  154 1   
   161  153  161 1   
   162  153  162 1   
   163  154  155 1   
   164  154  156 1   
   165  163  164 1   
   166  163  168 1   
   167  164  165 1   
   168  164  166 1   
   169  164  167 1   
   170  170  171 1   
   171  170  172 1   
   172  173  174 1   
   173  173  175 1   
   174  176  177 1   
   175  176  178 1   
@<TRIPOS>SUBSTRUCTURE
     1 MOL         1 TEMP              0 ****  ****    0 ROOT
