@<TRIPOS>MOLECULE
MOL
  188   182     1     0     0
SMALL
resp


@<TRIPOS>ATOM
      1 C1          1.4930    1.4310    3.1090 c3        1 MOL     -0.330771
      2 C2          2.5810    1.3570    2.0240 c         1 MOL      0.702374
      3 O1          2.2610    1.6970    0.9390 o         1 MOL     -0.588699
      4 H1          1.7130    2.2560    3.7860 hc        1 MOL      0.077876
      5 H2          0.5230    1.5960    2.6410 hc        1 MOL      0.077876
      6 H3          1.4730    0.4970    3.6690 hc        1 MOL      0.077876
      7 N1          3.7390    0.8100    2.3640 n         1 MOL     -0.378902
      8 C3          4.9190    0.6930    1.4940 c3        1 MOL     -0.140596
      9 C4          5.4970   -0.7170    1.3840 c         1 MOL      0.094441
     10 O2          6.6160   -0.8770    0.8940 o         1 MOL     -0.336858
     11 C5          5.9030    1.8200    1.7860 c3        1 MOL     -0.217631
     12 C6          6.5700    1.6830    3.1550 c         1 MOL      0.752672
     13 O3          7.6030    2.3660    3.3820 o         1 MOL     -0.708210
     14 O4          6.2420    0.8380    4.0250 o         1 MOL     -0.708210
     15 H4          3.9730    0.7390    3.3410 hn        1 MOL      0.223036
     16 H5          4.4700    0.7620    0.5010 h1        1 MOL      0.182274
     17 H6          5.3440    2.7560    1.8240 hc        1 MOL      0.107385
     18 H7          6.6280    1.8620    0.9730 hc        1 MOL      0.107385
     19 N2          4.7560   -1.6770    1.8690 n         1 MOL     -0.140813
     20 C7          5.2170   -3.1080    1.7860 c3        1 MOL     -0.008899
     21 C8          5.4310   -3.6670    0.3000 c         1 MOL      0.530015
     22 O5          6.4210   -4.2890   -0.1110 o         1 MOL     -0.493206
     23 C9          6.4390   -3.3750    2.6850 c3        1 MOL     -0.276252
     24 C10         6.6790   -2.4570    3.9350 c3        1 MOL      0.008436
     25 C11         7.8640   -2.8690    4.8620 c3        1 MOL     -0.011709
     26 C12         7.9830   -1.7720    5.9180 c3        1 MOL      0.013727
     27 N3          8.3680   -0.4730    5.3230 n4        1 MOL     -0.306648
     28 H8          3.8190   -1.5260    2.2010 hn        1 MOL      0.223509
     29 H9          4.4610   -3.7870    2.1750 h1        1 MOL      0.082285
     30 H10         7.3730   -3.3250    2.1330 hc        1 MOL      0.091288
     31 H11         6.3830   -4.3810    3.1000 hc        1 MOL      0.091288
     32 H12         5.7710   -2.4080    4.5340 hc        1 MOL      0.047043
     33 H13         6.9260   -1.4790    3.5190 hc        1 MOL      0.047043
     34 H14         8.7840   -2.9630    4.2800 hc        1 MOL      0.039623
     35 H15         7.8200   -3.8720    5.2820 hc        1 MOL      0.039623
     36 H16         8.6920   -2.1550    6.6460 hx        1 MOL      0.044909
     37 H17         6.9720   -1.6490    6.3100 hx        1 MOL      0.044909
     38 H18         8.3190    0.2780    5.9900 hn        1 MOL      0.316161
     39 H19         9.2260   -0.6410    4.8200 hn        1 MOL      0.316161
     40 H20         7.6700   -0.2670    4.6200 hn        1 MOL      0.316161
     41 N4          4.5090   -3.2270   -0.5710 n         1 MOL     -0.510344
     42 C13         4.6640   -3.2460   -2.0410 c3        1 MOL      0.089354
     43 C14         4.5360   -1.8890   -2.7680 c         1 MOL      0.613957
     44 O6          4.8880   -1.7760   -3.9320 o         1 MOL     -0.544970
     45 C15         3.7910   -4.3320   -2.6880 c3        1 MOL     -0.428466
     46 C16         2.3820   -4.4110   -2.2280 c         1 MOL      0.918814
     47 O7          1.7840   -3.4260   -1.9130 o         1 MOL     -0.821925
     48 O8          1.8530   -5.5510   -2.0860 o         1 MOL     -0.821925
     49 H21         3.7980   -2.6730   -0.1070 hn        1 MOL      0.221874
     50 H22         5.6790   -3.6040   -2.2280 h1        1 MOL      0.135639
     51 H23         4.2950   -5.2690   -2.4330 hc        1 MOL      0.113093
     52 H24         3.7390   -4.2850   -3.7750 hc        1 MOL      0.113093
     53 N5          4.2170   -0.8400   -1.9870 n         1 MOL     -0.439152
     54 C17         4.4120    0.5160   -2.3810 c3        1 MOL     -0.006579
     55 C18         5.9630    0.8960   -2.2700 c         1 MOL      0.555288
     56 O9          6.8120    0.0150   -2.0960 o         1 MOL     -0.513785
     57 H25         4.0430   -0.9460   -0.9980 hn        1 MOL      0.324180
     58 H26         3.7750    1.0740   -1.6880 h1        1 MOL      0.051760
     59 H27         3.8780    0.7780   -3.2910 h1        1 MOL      0.051760
     60 N6          6.3580    2.0900   -2.4470 n         1 MOL     -0.470732
     61 C19         5.5140    3.2800   -2.6340 c3        1 MOL      0.373769
     62 C20         5.5080    4.1910   -1.3790 c         1 MOL      0.318278
     63 O10         6.6080    4.5480   -0.9500 o         1 MOL     -0.491094
     64 C21         6.1290    4.1390   -3.7520 c3        1 MOL     -0.261657
     65 C22         6.3650    3.3960   -5.0690 c         1 MOL      0.605051
     66 N7          5.5040    3.5640   -6.0280 n         1 MOL     -0.778035
     67 O11         7.2350    2.5470   -5.2690 o         1 MOL     -0.528357
     68 H28         7.3750    2.1270   -2.5090 hn        1 MOL      0.305365
     69 H29         4.5180    3.0670   -3.0220 h1        1 MOL     -0.016441
     70 H30         7.1270    4.5090   -3.5130 hc        1 MOL      0.078001
     71 H31         5.5030    5.0080   -3.9370 hc        1 MOL      0.078001
     72 H32         4.6770    4.1350   -5.9800 hn        1 MOL      0.360121
     73 H33         5.7340    3.0700   -6.8810 hn        1 MOL      0.360121
     74 N8          4.3580    4.4530   -0.7340 n         1 MOL     -0.305422
     75 C23         3.0010    3.9640   -1.1690 c3        1 MOL     -0.212108
     76 C24         1.7870    4.6080   -0.4400 c         1 MOL      0.765265
     77 O12         1.9630    5.6240    0.1720 o         1 MOL     -0.559614
     78 H34         4.3770    5.1400    0.0150 hn        1 MOL      0.284450
     79 H35         2.9790    2.8830   -0.9700 h1        1 MOL      0.072436
     80 H36         2.7980    4.2010   -2.2050 h1        1 MOL      0.072436
     81 N9          0.5940    3.9820   -0.4070 n         1 MOL     -0.647904
     82 C25        -0.6090    4.5400    0.1300 c3        1 MOL      0.223965
     83 C26        -1.5530    3.4640    0.7130 c         1 MOL      0.574152
     84 O13        -1.2500    2.2860    0.6970 o         1 MOL     -0.457789
     85 C27        -1.2030    5.2970   -1.0630 c3        1 MOL     -0.202416
     86 C28        -2.4560    6.0650   -0.7720 ca        1 MOL      0.168217
     87 C29        -3.5000    6.1060   -1.6550 ca        1 MOL     -0.206530
     88 C30        -2.4790    7.0220    0.3490 ca        1 MOL     -0.206530
     89 C31        -4.5660    6.9990   -1.4490 ca        1 MOL     -0.183587
     90 C32        -3.6290    7.7590    0.6420 ca        1 MOL     -0.183587
     91 C33        -4.6710    7.7340   -0.3160 ca        1 MOL      0.264713
     92 O14        -5.7840    8.5430   -0.1700 oh        1 MOL     -0.511741
     93 H37         0.5040    3.0120   -0.6790 hn        1 MOL      0.309604
     94 H38        -0.3840    5.2830    0.9000 h1        1 MOL      0.028788
     95 H39        -1.3850    4.5380   -1.8310 hc        1 MOL      0.075426
     96 H40        -0.4610    5.9860   -1.4620 hc        1 MOL      0.075426
     97 H41        -3.4080    5.5530   -2.5750 ha        1 MOL      0.141274
     98 H42        -1.5920    7.2190    0.9260 ha        1 MOL      0.141274
     99 H43        -5.3860    7.0340   -2.1510 ha        1 MOL      0.133211
    100 H44        -3.7600    8.4670    1.4480 ha        1 MOL      0.133211
    101 H45        -5.8930    8.8570    0.7290 ho        1 MOL      0.377651
    102 N10        -2.6490    3.9600    1.2950 n         1 MOL     -0.545042
    103 C34        -3.8630    3.1960    1.6940 c3        1 MOL     -0.028386
    104 C35        -4.6110    2.8300    0.3920 c         1 MOL      0.412043
    105 O15        -4.3010    3.1380   -0.7710 o         1 MOL     -0.456027
    106 C36        -4.7310    4.0270    2.6290 c3        1 MOL      0.298162
    107 C37        -5.5740    5.1200    2.0430 c3        1 MOL     -0.124291
    108 C38        -5.5710    3.1110    3.6040 c3        1 MOL     -0.422506
    109 C39        -6.3640    6.0800    2.9760 c3        1 MOL     -0.155374
    110 H46        -2.6980    4.9470    1.4600 hn        1 MOL      0.230422
    111 H47        -3.6360    2.2700    2.2300 h1        1 MOL      0.106128
    112 H48        -4.0190    4.5340    3.2750 hc        1 MOL      0.010147
    113 H49        -6.2740    4.6070    1.3710 hc        1 MOL      0.048207
    114 H50        -4.8410    5.7840    1.5890 hc        1 MOL      0.048207
    115 H51        -4.9910    2.4710    4.2710 hc        1 MOL      0.106695
    116 H52        -6.1180    3.7940    4.2540 hc        1 MOL      0.106695
    117 H53        -6.3190    2.4950    3.1030 hc        1 MOL      0.106695
    118 H54        -7.2510    5.7250    3.5090 hc        1 MOL      0.042392
    119 H55        -5.7200    6.3390    3.8180 hc        1 MOL      0.042392
    120 H56        -6.6740    6.9660    2.4190 hc        1 MOL      0.042392
    121 N11        -5.6460    2.0490    0.6090 n         1 MOL     -0.326508
    122 C40        -6.5140    1.4460   -0.5140 c3        1 MOL     -0.015471
    123 C41        -5.8380    0.2740   -1.3160 c         1 MOL      0.500229
    124 O16        -4.9050   -0.2810   -0.7100 o         1 MOL     -0.373150
    125 C42        -7.8160    0.8730    0.1370 c3        1 MOL     -0.112897
    126 O17        -7.5660   -0.0370    1.2640 oh        1 MOL     -0.501623
    127 H57        -5.8910    1.8840    1.5760 hn        1 MOL      0.273878
    128 H58        -6.7460    2.2470   -1.2180 h1        1 MOL      0.089792
    129 H59        -8.2500    0.1910   -0.5910 h1        1 MOL      0.098521
    130 H60        -8.4530    1.6590    0.5490 h1        1 MOL      0.098521
    131 H61        -8.2380   -0.7150    1.2960 ho        1 MOL      0.400228
    132 N12        -6.1790    0.0330   -2.5710 n         1 MOL     -0.514073
    133 C43        -5.7460   -1.0920   -3.3340 c3        1 MOL      0.263532
    134 C44        -5.8200   -2.4440   -2.5270 c         1 MOL      0.532319
    135 O18        -4.8350   -3.1600   -2.3820 o         1 MOL     -0.573237
    136 C45        -4.3980   -0.7280   -3.8570 c3        1 MOL     -0.354487
    137 H62        -6.9060    0.6130   -2.9560 hn        1 MOL      0.302568
    138 H63        -6.4780   -1.2140   -4.1270 h1        1 MOL      0.018682
    139 H64        -4.3670    0.2420   -4.3560 hc        1 MOL      0.109311
    140 H65        -3.7130   -0.6990   -3.0090 hc        1 MOL      0.109311
    141 H66        -4.1200   -1.4140   -4.6530 hc        1 MOL      0.109311
    142 N13        -7.0500   -2.8200   -2.0680 n         1 MOL     -0.486821
    143 C46        -7.4470   -3.9660   -1.2080 c3        1 MOL      0.295051
    144 C47        -6.4530   -4.2140   -0.0500 c         1 MOL      0.438567
    145 O19        -6.1580   -5.3290    0.2230 o         1 MOL     -0.502641
    146 C48        -7.7480   -5.1800   -2.1790 c3        1 MOL     -0.501473
    147 H67        -7.8640   -2.3200   -2.3860 hn        1 MOL      0.249177
    148 H68        -8.3420   -3.6810   -0.6700 h1        1 MOL      0.021156
    149 H69        -8.4190   -4.9670   -3.0200 hc        1 MOL      0.143771
    150 H70        -6.7650   -5.5590   -2.4450 hc        1 MOL      0.143771
    151 H71        -8.3410   -5.9280   -1.6690 hc        1 MOL      0.143771
    152 N14        -5.8060   -3.1870    0.4750 n         1 MOL     -0.375069
    153 C49        -4.7420   -3.3510    1.5110 c3        1 MOL     -0.077742
    154 C50        -5.4220   -3.3630    2.8770 c         1 MOL      0.611035
    155 O20        -5.1800   -4.3270    3.6010 o         1 MOL     -0.558226
    156 C51        -3.7290   -2.1960    1.4340 c3        1 MOL      0.138008
    157 C52        -2.3280   -2.3630    2.0450 c3        1 MOL     -0.275582
    158 C53        -1.3920   -3.3930    1.3840 c         1 MOL      0.818951
    159 O21        -0.2540   -3.0710    0.9840 o         1 MOL     -0.752124
    160 O22        -1.8310   -4.5680    1.2490 o         1 MOL     -0.752124
    161 H72        -6.0070   -2.2880    0.0600 hn        1 MOL      0.158527
    162 H73        -4.2110   -4.2770    1.2970 h1        1 MOL      0.143805
    163 H74        -4.2190   -1.3310    1.9000 hc        1 MOL     -0.021835
    164 H75        -3.5190   -2.0480    0.3740 hc        1 MOL     -0.021835
    165 H76        -2.4280   -2.5950    3.1010 hc        1 MOL      0.047194
    166 H77        -1.8970   -1.3690    1.9790 hc        1 MOL      0.047194
    167 N15        -6.3060   -2.4510    3.1460 n         1 MOL     -0.269512
    168 C54        -7.2570   -2.5640    4.2640 c3        1 MOL     -0.205209
    169 H78        -7.3810   -1.5890    4.7340 h1        1 MOL      0.099232
    170 H79        -8.2190   -2.9120    3.8890 h1        1 MOL      0.099232
    171 H80        -6.8730   -3.2750    4.9970 h1        1 MOL      0.099232
    172 H81        -6.4420   -1.7820    2.4070 hn        1 MOL      0.135866
    173 Ca1        -0.3690   -4.6850   -1.0320 Ca        1 MOL      1.745616
    174 O23        -0.9580   -7.2670   -1.2070 oh        1 MOL     -0.790583
    175 H82        -0.7140   -8.1720   -1.0320 ho        1 MOL      0.396394
    176 H83        -1.4910   -7.3150   -2.0090 ho        1 MOL      0.396394
    177 O24        -1.2600   -2.1880   -1.5740 oh        1 MOL     -0.790583
    178 H84        -1.4580   -1.3240   -1.2140 ho        1 MOL      0.396394
    179 H85        -0.8830   -2.0100   -2.4330 ho        1 MOL      0.396394
    180 O25        -2.9480   -4.8860   -1.2520 oh        1 MOL     -0.790583
    181 H86        -3.5230   -4.2570   -1.6870 ho        1 MOL      0.396394
    182 H87        -3.5300   -5.4390   -0.7380 ho        1 MOL      0.396394
    183 O26        -0.8220   -5.5780   -3.6960 oh        1 MOL     -0.790583
    184 H88        -1.1340   -4.9690   -4.3600 ho        1 MOL      0.396394
    185 H89        -1.4080   -6.3270   -3.7650 ho        1 MOL      0.396394
    186 O27         0.9430   -5.7520    0.9340 oh        1 MOL     -0.790583
    187 H90         1.4680   -6.5160    0.6910 ho        1 MOL      0.396394
    188 H91         1.4340   -5.3190    1.6240 ho        1 MOL      0.396394
@<TRIPOS>BOND
     1    1    2 1   
     2    1    4 1   
     3    1    5 1   
     4    1    6 1   
     5    2    3 2   
     6    2    7 1   
     7    7    8 1   
     8    7   15 1   
     9    8    9 1   
    10    8   11 1   
    11    8   16 1   
    12    9   10 2   
    13    9   19 1   
    14   11   12 1   
    15   11   17 1   
    16   11   18 1   
    17   12   13 1   
    18   12   14 1   
    19   19   20 1   
    20   19   28 1   
    21   20   21 1   
    22   20   23 1   
    23   20   29 1   
    24   21   22 2   
    25   21   41 1   
    26   23   24 1   
    27   23   30 1   
    28   23   31 1   
    29   24   25 1   
    30   24   32 1   
    31   24   33 1   
    32   25   26 1   
    33   25   34 1   
    34   25   35 1   
    35   26   27 1   
    36   26   36 1   
    37   26   37 1   
    38   27   38 1   
    39   27   39 1   
    40   27   40 1   
    41   41   42 1   
    42   41   49 1   
    43   42   43 1   
    44   42   45 1   
    45   42   50 1   
    46   43   44 2   
    47   43   53 1   
    48   45   46 1   
    49   45   51 1   
    50   45   52 1   
    51   46   47 1   
    52   46   48 1   
    53   53   54 1   
    54   53   57 1   
    55   54   55 1   
    56   54   58 1   
    57   54   59 1   
    58   55   56 2   
    59   55   60 1   
    60   60   61 1   
    61   60   68 1   
    62   61   62 1   
    63   61   64 1   
    64   61   69 1   
    65   62   63 2   
    66   62   74 1   
    67   64   65 1   
    68   64   70 1   
    69   64   71 1   
    70   65   66 1   
    71   65   67 2   
    72   66   72 1   
    73   66   73 1   
    74   74   75 1   
    75   74   78 1   
    76   75   76 1   
    77   75   79 1   
    78   75   80 1   
    79   76   77 2   
    80   76   81 1   
    81   81   82 1   
    82   81   93 1   
    83   82   83 1   
    84   82   85 1   
    85   82   94 1   
    86   83   84 2   
    87   83  102 1   
    88   85   86 1   
    89   85   95 1   
    90   85   96 1   
    91   86   87 ar  
    92   86   88 ar  
    93   87   89 ar  
    94   87   97 1   
    95   88   90 ar  
    96   88   98 1   
    97   89   91 ar  
    98   89   99 1   
    99   90   91 ar  
   100   90  100 1   
   101   91   92 1   
   102   92  101 1   
   103  102  103 1   
   104  102  110 1   
   105  103  104 1   
   106  103  106 1   
   107  103  111 1   
   108  104  105 2   
   109  104  121 1   
   110  106  107 1   
   111  106  108 1   
   112  106  112 1   
   113  107  109 1   
   114  107  113 1   
   115  107  114 1   
   116  108  115 1   
   117  108  116 1   
   118  108  117 1   
   119  109  118 1   
   120  109  119 1   
   121  109  120 1   
   122  121  122 1   
   123  121  127 1   
   124  122  123 1   
   125  122  125 1   
   126  122  128 1   
   127  123  124 2   
   128  123  132 1   
   129  125  126 1   
   130  125  129 1   
   131  125  130 1   
   132  126  131 1   
   133  132  133 1   
   134  132  137 1   
   135  133  134 1   
   136  133  136 1   
   137  133  138 1   
   138  134  135 2   
   139  134  142 1   
   140  136  139 1   
   141  136  140 1   
   142  136  141 1   
   143  142  143 1   
   144  142  147 1   
   145  143  144 1   
   146  143  146 1   
   147  143  148 1   
   148  144  145 2   
   149  144  152 1   
   150  146  149 1   
   151  146  150 1   
   152  146  151 1   
   153  152  153 1   
   154  152  161 1   
   155  153  154 1   
   156  153  156 1   
   157  153  162 1   
   158  154  155 2   
   159  154  167 1   
   160  156  157 1   
   161  156  163 1   
   162  156  164 1   
   163  157  158 1   
   164  157  165 1   
   165  157  166 1   
   166  158  159 1   
   167  158  160 1   
   168  167  168 1   
   169  167  172 1   
   170  168  169 1   
   171  168  170 1   
   172  168  171 1   
   173  174  175 1   
   174  174  176 1   
   175  177  178 1   
   176  177  179 1   
   177  180  181 1   
   178  180  182 1   
   179  183  184 1   
   180  183  185 1   
   181  186  187 1   
   182  186  188 1   
@<TRIPOS>SUBSTRUCTURE
     1 MOL         1 TEMP              0 ****  ****    0 ROOT
