@<TRIPOS>MOLECULE
MOL
  181   177     1     0     0
SMALL
resp


@<TRIPOS>ATOM
      1 C1          8.2550    7.0430   -0.7870 c3        1 MOL     -0.194072
      2 C2          7.0930    6.2250   -0.1240 c         1 MOL      0.490707
      3 O1          6.4360    6.6780    0.8120 o         1 MOL     -0.557165
      4 H1          9.0960    7.1030   -0.0960 hc        1 MOL      0.058495
      5 H2          8.5740    6.5450   -1.7020 hc        1 MOL      0.058495
      6 H3          7.9050    8.0480   -1.0210 hc        1 MOL      0.058495
      7 N1          6.7160    5.0870   -0.6920 n         1 MOL     -0.329253
      8 C3          7.2710    4.4440   -1.8820 c3        1 MOL      0.123541
      9 C4          8.6550    3.7820   -1.5450 c         1 MOL      0.400752
     10 O2          9.7120    4.0590   -2.1680 o         1 MOL     -0.527513
     11 C5          6.2460    3.3740   -2.4530 c3        1 MOL     -0.209118
     12 C6          5.5610    2.6370   -1.2400 c         1 MOL      0.419426
     13 O3          4.4270    2.9290   -0.8180 o         1 MOL     -0.549870
     14 O4          6.2310    1.7970   -0.6440 o         1 MOL     -0.549870
     15 H4          5.8860    4.6280   -0.3590 hn        1 MOL      0.266329
     16 H5          7.4930    5.1060   -2.7190 h1        1 MOL      0.057912
     17 H6          6.8340    2.6800   -3.0530 hc        1 MOL      0.080576
     18 H7          5.4890    3.9350   -2.9920 hc        1 MOL      0.080576
     19 N2          8.7020    2.8830   -0.4630 n         1 MOL     -0.309025
     20 C7          9.9170    2.1610    0.0330 c3        1 MOL      0.373610
     21 C8          9.7530    0.5550   -0.0460 c         1 MOL      0.348637
     22 O5         10.6170   -0.1050    0.4990 o         1 MOL     -0.537810
     23 C9         10.1230    2.7560    1.4300 c3        1 MOL     -0.505199
     24 H8          7.8680    2.8030    0.0970 hn        1 MOL      0.162320
     25 H9         10.7260    2.3960   -0.6660 h1        1 MOL      0.005536
     26 H10         9.1900    2.7800    1.9860 hc        1 MOL      0.128950
     27 H11        10.7570    2.0830    2.0070 hc        1 MOL      0.128950
     28 H12        10.6520    3.6990    1.3060 hc        1 MOL      0.128950
     29 N3          8.6520    0.1020   -0.5890 n         1 MOL     -0.084403
     30 C10         8.3990   -1.3270   -0.7510 c3        1 MOL      0.017154
     31 C11         7.6720   -1.5930   -2.0190 c         1 MOL      0.306090
     32 O6          7.9220   -2.6860   -2.5590 o         1 MOL     -0.496227
     33 C12         7.5650   -2.0340    0.3560 c3        1 MOL      0.016431
     34 C13         6.3760   -1.1660    0.7290 c         1 MOL      0.595324
     35 O7          6.4860   -0.4020    1.7010 o         1 MOL     -0.699183
     36 O8          5.3660   -1.2620    0.0080 o         1 MOL     -0.699183
     37 H13         8.0110    0.7760   -0.9960 hn        1 MOL     -0.048347
     38 H14         9.4080   -1.7390   -0.8100 h1        1 MOL      0.079249
     39 H15         8.1480   -2.2170    1.2570 hc        1 MOL      0.009695
     40 H16         7.2420   -2.9940   -0.0200 hc        1 MOL      0.009695
     41 N4          6.7180   -0.7820   -2.5070 n         1 MOL     -0.097444
     42 C14         6.0190   -1.0400   -3.7600 c3        1 MOL     -0.309244
     43 C15         5.1470   -2.2790   -3.7630 c         1 MOL      0.649761
     44 O9          4.7190   -2.7770   -4.8030 o         1 MOL     -0.547004
     45 H17         6.5650    0.0270   -1.9210 hn        1 MOL      0.261932
     46 H18         6.8140   -1.2110   -4.4940 h1        1 MOL      0.124841
     47 H19         5.5560   -0.1010   -4.0730 h1        1 MOL      0.124841
     48 N5          4.6920   -2.6790   -2.5440 n         1 MOL     -0.478930
     49 C16         3.8660   -3.8610   -2.3540 c3        1 MOL      0.173376
     50 C17         2.6950   -3.8040   -1.3590 c         1 MOL      0.297578
     51 O10         1.6540   -4.4970   -1.4390 o         1 MOL     -0.451020
     52 C18         4.9080   -4.9420   -2.0490 c3        1 MOL     -0.365862
     53 C19         4.3260   -6.2340   -1.4970 c         1 MOL      0.688309
     54 N6          4.2340   -6.2490   -0.1520 n         1 MOL     -0.852989
     55 O11         3.9780   -7.1780   -2.2190 o         1 MOL     -0.540263
     56 H20         5.1250   -2.2000   -1.7750 hn        1 MOL      0.227989
     57 H21         3.4100   -4.0980   -3.3170 h1        1 MOL      0.110785
     58 H22         5.6120   -4.5500   -1.3110 hc        1 MOL      0.120681
     59 H23         5.4540   -5.2300   -2.9460 hc        1 MOL      0.120681
     60 H24         4.2930   -5.3960    0.3800 hn        1 MOL      0.374286
     61 H25         3.7730   -7.0430    0.2620 hn        1 MOL      0.374286
     62 N7          2.8440   -2.9520   -0.3220 n         1 MOL     -0.198033
     63 C20         1.8930   -2.9120    0.8110 c3        1 MOL     -0.184992
     64 C21         2.2610   -1.9250    1.9420 c         1 MOL      0.342437
     65 O12         2.8560   -0.8800    1.7730 o         1 MOL     -0.486252
     66 H26         3.7030   -2.4240   -0.2580 hn        1 MOL      0.235614
     67 H27         1.9700   -3.8880    1.2750 h1        1 MOL      0.162810
     68 H28         0.8920   -2.7930    0.3990 h1        1 MOL      0.162810
     69 N8          1.9950   -2.2210    3.2200 n         1 MOL     -0.186341
     70 C22         0.9930   -3.2160    3.6530 c3        1 MOL     -0.291875
     71 C23        -0.4330   -3.1330    3.0070 c         1 MOL      0.442330
     72 O13        -1.0030   -4.2020    2.7450 o         1 MOL     -0.479339
     73 C24         0.8680   -3.0600    5.2250 c3        1 MOL      0.413380
     74 C25         2.2230   -3.1600    5.9980 c3        1 MOL     -0.455236
     75 O14         0.4260   -1.6840    5.3080 oh        1 MOL     -0.553554
     76 H29         2.3930   -1.5960    3.8990 hn        1 MOL      0.232934
     77 H30         1.3490   -4.2190    3.4390 h1        1 MOL      0.123636
     78 H31         0.1630   -3.7890    5.6440 h1        1 MOL      0.025241
     79 H32        -0.1500   -1.6820    6.0840 ho        1 MOL      0.347178
     80 H33         2.0250   -3.0550    7.0600 hc        1 MOL      0.115129
     81 H34         2.7440   -4.0750    5.7200 hc        1 MOL      0.115129
     82 H35         2.8050   -2.2950    5.6810 hc        1 MOL      0.115129
     83 N9         -0.9410   -1.8840    2.7760 n         1 MOL     -0.211225
     84 C26        -2.2920   -1.6790    2.2410 c3        1 MOL     -0.535418
     85 C27        -2.3060   -1.7040    0.6830 c         1 MOL      0.986378
     86 O15        -1.2650   -1.4150    0.1150 o         1 MOL     -0.659658
     87 C28        -2.8520   -0.3390    2.8120 c3        1 MOL      0.291891
     88 C29        -2.0540    0.9580    2.5110 c3        1 MOL      0.050195
     89 C30        -2.9900   -0.5440    4.3850 c3        1 MOL     -0.231644
     90 C31        -2.7220    2.2130    3.1300 c3        1 MOL     -0.204951
     91 H36        -0.3650   -1.0530    2.8600 hn        1 MOL      0.217434
     92 H37        -2.8260   -2.5780    2.5390 h1        1 MOL      0.231619
     93 H38        -3.8660   -0.1860    2.4310 hc        1 MOL      0.011461
     94 H39        -2.0280    1.1160    1.4330 hc        1 MOL      0.017257
     95 H40        -1.0560    0.9030    2.9350 hc        1 MOL      0.017257
     96 H41        -3.8320    0.0280    4.7770 hc        1 MOL      0.036652
     97 H42        -3.1730   -1.5720    4.7170 hc        1 MOL      0.036652
     98 H43        -2.0390   -0.1440    4.7190 hc        1 MOL      0.036652
     99 H44        -2.4040    3.1430    2.6470 hc        1 MOL      0.042046
    100 H45        -3.8030    2.2510    2.9380 hc        1 MOL      0.042046
    101 H46        -2.4820    2.1960    4.1910 hc        1 MOL      0.042046
    102 N10        -3.3220   -2.0200   -0.1140 n         1 MOL     -0.986823
    103 C32        -4.7000   -2.4120    0.2030 c3        1 MOL      0.784629
    104 C33        -5.7540   -1.4480   -0.3250 c         1 MOL      0.265562
    105 O16        -5.5470   -0.8390   -1.3720 o         1 MOL     -0.442746
    106 C34        -4.8660   -3.8560   -0.1700 c3        1 MOL     -0.305205
    107 C35        -4.4160   -4.2480   -1.6090 c         1 MOL      1.001869
    108 O17        -4.1570   -3.4020   -2.4860 o         1 MOL     -0.779437
    109 O18        -4.2170   -5.4110   -1.9220 o         1 MOL     -0.779437
    110 H47        -3.1500   -1.9470   -1.1050 hn        1 MOL      0.394826
    111 H48        -4.7200   -2.3870    1.2920 h1        1 MOL     -0.129417
    112 H49        -5.8970   -4.1500    0.0040 hc        1 MOL     -0.019702
    113 H50        -4.2670   -4.4280    0.5340 hc        1 MOL     -0.019702
    114 N11        -6.9110   -1.4040    0.3600 n         1 MOL     -0.564082
    115 C36        -8.0560   -0.6860    0.0170 c3        1 MOL      0.803389
    116 C37        -8.5070    0.3640    0.9940 c         1 MOL      0.092481
    117 O19        -8.0740    0.2230    2.1430 o         1 MOL     -0.476432
    118 C38        -9.1820   -1.6770   -0.2260 c3        1 MOL     -0.066734
    119 C39        -8.8400   -2.8550   -1.0530 ca        1 MOL     -0.110578
    120 C40        -8.4730   -2.6900   -2.4230 ca        1 MOL     -0.071860
    121 C41        -8.9150   -4.1170   -0.5190 ca        1 MOL     -0.071860
    122 C42        -8.2570   -3.8950   -3.1730 ca        1 MOL     -0.065558
    123 C43        -8.6720   -5.2270   -1.2240 ca        1 MOL     -0.065558
    124 C44        -8.3920   -5.1600   -2.5810 ca        1 MOL     -0.264766
    125 H51        -6.8920   -1.7990    1.2960 hn        1 MOL      0.222064
    126 H52        -7.8100   -0.1320   -0.8980 h1        1 MOL     -0.047850
    127 H53       -10.0330   -1.2020   -0.7170 hc        1 MOL      0.003249
    128 H54        -9.6620   -2.0290    0.6890 hc        1 MOL      0.003249
    129 H55        -8.5140   -1.7360   -2.9340 ha        1 MOL      0.076791
    130 H56        -9.0590   -4.3600    0.5210 ha        1 MOL      0.076791
    131 H57        -7.9240   -3.8830   -4.2060 ha        1 MOL      0.103819
    132 H58        -8.8490   -6.2060   -0.8010 ha        1 MOL      0.103819
    133 H59        -8.2740   -6.0100   -3.2370 ha        1 MOL      0.163486
    134 N12        -9.4320    1.2860    0.6520 n         1 MOL     -0.081055
    135 C45        -9.7590    1.7830   -0.6740 c3        1 MOL      0.150619
    136 C46        -8.6450    2.5840   -1.3880 c         1 MOL      0.234802
    137 O20        -8.2710    2.2420   -2.5080 o         1 MOL     -0.480565
    138 C47       -11.1050    2.5880   -0.5450 c3        1 MOL     -0.021982
    139 C48       -11.6940    2.1820    0.7990 c3        1 MOL     -0.119504
    140 C49       -10.3730    1.8600    1.5040 c3        1 MOL      0.062842
    141 H60       -10.0180    0.8980   -1.2520 h1        1 MOL     -0.015794
    142 H61       -10.9350    3.6580   -0.5240 hc        1 MOL      0.025164
    143 H62       -11.7510    2.4250   -1.4120 hc        1 MOL      0.025164
    144 H63       -12.1950    3.0130    1.2940 hc        1 MOL      0.043823
    145 H64       -12.3610    1.3120    0.8010 hc        1 MOL      0.043823
    146 H65        -9.9620    2.8240    1.8130 h1        1 MOL      0.010650
    147 H66       -10.5290    1.2800    2.4160 h1        1 MOL      0.010650
    148 N13        -7.9990    3.4990   -0.7180 n         1 MOL     -0.291063
    149 C50        -7.0640    4.4670   -1.2810 c3        1 MOL      0.081207
    150 C51        -7.7670    5.5720   -2.1380 c         1 MOL      0.407429
    151 O21        -8.2540    6.5850   -1.6530 o         1 MOL     -0.547776
    152 C52        -6.3480    5.1110   -0.1060 c3        1 MOL     -0.246626
    153 C53        -5.3880    4.1440    0.6150 c3        1 MOL      0.051754
    154 C54        -4.3730    5.0210    1.3940 c         1 MOL      0.695613
    155 O22        -3.2150    5.1450    0.9580 o         1 MOL     -0.727482
    156 O23        -4.7090    5.6650    2.4610 o         1 MOL     -0.727482
    157 H67        -8.3520    3.7990    0.1770 hn        1 MOL      0.324682
    158 H68        -6.2870    3.9100   -1.7890 h1        1 MOL      0.158100
    159 H69        -7.0670    5.4470    0.6370 hc        1 MOL      0.061029
    160 H70        -5.7170    5.9050   -0.5080 hc        1 MOL      0.061029
    161 H71        -4.8770    3.4950   -0.1030 hc        1 MOL     -0.046311
    162 H72        -5.9150    3.4900    1.3050 hc        1 MOL     -0.046311
    163 N14        -7.8880    5.4090   -3.4540 n         1 MOL     -0.303774
    164 C55        -7.0830    4.5040   -4.3240 c3        1 MOL     -0.018860
    165 H73        -7.7510    3.8430   -4.8760 h1        1 MOL      0.047571
    166 H74        -6.5000    5.0990   -5.0270 h1        1 MOL      0.047571
    167 H75        -6.4120    3.9080   -3.7070 h1        1 MOL      0.047571
    168 H76        -8.5450    6.0640   -3.8480 hn        1 MOL      0.246491
    169 Ca1         4.3510    0.9860    0.9550 Ca        1 MOL      1.737328
    170 O24         4.6300    3.5130    2.0070 oh        1 MOL     -0.836639
    171 H77         5.2520    3.7300    2.7000 ho        1 MOL      0.410860
    172 H78         3.8770    4.0940    2.1640 ho        1 MOL      0.410860
    173 O25         2.7820    0.2170   -1.1620 oh        1 MOL     -0.836639
    174 H79         2.7640   -0.4620   -1.8320 ho        1 MOL      0.410860
    175 H80         1.8620    0.3790   -0.9600 ho        1 MOL      0.410860
    176 O26         4.1930    0.7770    3.7250 oh        1 MOL     -0.836639
    177 H81         4.9590    1.0740    4.2110 ho        1 MOL      0.410860
    178 H82         3.4580    0.9040    4.3200 ho        1 MOL      0.410860
    179 O27         2.1030    2.0040    1.9090 oh        1 MOL     -0.836639
    180 H83         1.4390    2.5790    1.5300 ho        1 MOL      0.410860
    181 H84         1.8170    1.8640    2.8050 ho        1 MOL      0.410860
@<TRIPOS>BOND
     1    1    2 1   
     2    1    4 1   
     3    1    5 1   
     4    1    6 1   
     5    2    3 2   
     6    2    7 1   
     7    7    8 1   
     8    7   15 1   
     9    8    9 1   
    10    8   11 1   
    11    8   16 1   
    12    9   10 2   
    13    9   19 1   
    14   11   12 1   
    15   11   17 1   
    16   11   18 1   
    17   12   13 1   
    18   12   14 1   
    19   19   20 1   
    20   19   24 1   
    21   20   21 1   
    22   20   23 1   
    23   20   25 1   
    24   21   22 2   
    25   21   29 1   
    26   23   26 1   
    27   23   27 1   
    28   23   28 1   
    29   29   30 1   
    30   29   37 1   
    31   30   31 1   
    32   30   33 1   
    33   30   38 1   
    34   31   32 2   
    35   31   41 1   
    36   33   34 1   
    37   33   39 1   
    38   33   40 1   
    39   34   35 1   
    40   34   36 1   
    41   41   42 1   
    42   41   45 1   
    43   42   43 1   
    44   42   46 1   
    45   42   47 1   
    46   43   44 2   
    47   43   48 1   
    48   48   49 1   
    49   48   56 1   
    50   49   50 1   
    51   49   52 1   
    52   49   57 1   
    53   50   51 2   
    54   50   62 1   
    55   52   53 1   
    56   52   58 1   
    57   52   59 1   
    58   53   54 1   
    59   53   55 2   
    60   54   60 1   
    61   54   61 1   
    62   62   63 1   
    63   62   66 1   
    64   63   64 1   
    65   63   67 1   
    66   63   68 1   
    67   64   65 2   
    68   64   69 1   
    69   69   70 1   
    70   69   76 1   
    71   70   71 1   
    72   70   73 1   
    73   70   77 1   
    74   71   72 2   
    75   71   83 1   
    76   73   74 1   
    77   73   75 1   
    78   73   78 1   
    79   74   80 1   
    80   74   81 1   
    81   74   82 1   
    82   75   79 1   
    83   83   84 1   
    84   83   91 1   
    85   84   85 1   
    86   84   87 1   
    87   84   92 1   
    88   85   86 2   
    89   85  102 1   
    90   87   88 1   
    91   87   89 1   
    92   87   93 1   
    93   88   90 1   
    94   88   94 1   
    95   88   95 1   
    96   89   96 1   
    97   89   97 1   
    98   89   98 1   
    99   90   99 1   
   100   90  100 1   
   101   90  101 1   
   102  102  103 1   
   103  102  110 1   
   104  103  104 1   
   105  103  106 1   
   106  103  111 1   
   107  104  105 2   
   108  104  114 1   
   109  106  107 1   
   110  106  112 1   
   111  106  113 1   
   112  107  108 1   
   113  107  109 1   
   114  114  115 1   
   115  114  125 1   
   116  115  116 1   
   117  115  118 1   
   118  115  126 1   
   119  116  117 2   
   120  116  134 1   
   121  118  119 1   
   122  118  127 1   
   123  118  128 1   
   124  119  120 ar  
   125  119  121 ar  
   126  120  122 ar  
   127  120  129 1   
   128  121  123 ar  
   129  121  130 1   
   130  122  124 ar  
   131  122  131 1   
   132  123  124 ar  
   133  123  132 1   
   134  124  133 1   
   135  134  135 1   
   136  134  140 1   
   137  135  136 1   
   138  135  138 1   
   139  135  141 1   
   140  136  137 2   
   141  136  148 1   
   142  138  139 1   
   143  138  142 1   
   144  138  143 1   
   145  139  140 1   
   146  139  144 1   
   147  139  145 1   
   148  140  146 1   
   149  140  147 1   
   150  148  149 1   
   151  148  157 1   
   152  149  150 1   
   153  149  152 1   
   154  149  158 1   
   155  150  151 2   
   156  150  163 1   
   157  152  153 1   
   158  152  159 1   
   159  152  160 1   
   160  153  154 1   
   161  153  161 1   
   162  153  162 1   
   163  154  155 1   
   164  154  156 1   
   165  163  164 1   
   166  163  168 1   
   167  164  165 1   
   168  164  166 1   
   169  164  167 1   
   170  170  171 1   
   171  170  172 1   
   172  173  174 1   
   173  173  175 1   
   174  176  177 1   
   175  176  178 1   
   176  179  180 1   
   177  179  181 1   
@<TRIPOS>SUBSTRUCTURE
     1 MOL         1 TEMP              0 ****  ****    0 ROOT
