@<TRIPOS>MOLECULE
MOL
  181   177     1     0     0
SMALL
resp


@<TRIPOS>ATOM
      1 C1          0.1650    6.4000   -1.9910 c3        1 MOL     -0.363660
      2 C2          1.4350    6.8010   -1.2800 c         1 MOL      0.640523
      3 O1          1.3840    7.5190   -0.2070 o         1 MOL     -0.614301
      4 H1          0.2440    5.3630   -2.3160 hc        1 MOL      0.096422
      5 H2         -0.6810    6.5040   -1.3110 hc        1 MOL      0.096422
      6 H3          0.0160    7.0430   -2.8590 hc        1 MOL      0.096422
      7 N1          2.5810    6.4910   -1.8220 n         1 MOL     -0.455472
      8 C3          3.8990    6.6800   -1.1480 c3        1 MOL      0.083320
      9 C4          4.4510    5.5090   -0.3660 c         1 MOL      0.565722
     10 O2          4.7330    4.4320   -0.9570 o         1 MOL     -0.551602
     11 C5          4.8480    7.1170   -2.2690 c3        1 MOL     -0.270057
     12 C6          6.2570    7.3920   -1.6770 c         1 MOL      0.649027
     13 O3          7.1100    6.4400   -1.6910 o         1 MOL     -0.706066
     14 O4          6.5040    8.5150   -1.1640 o         1 MOL     -0.706066
     15 H4          2.6070    6.0160   -2.7100 hn        1 MOL      0.282196
     16 H5          3.7990    7.5330   -0.4780 h1        1 MOL      0.070525
     17 H6          4.4130    8.0020   -2.7360 hc        1 MOL      0.051455
     18 H7          4.8510    6.3430   -3.0430 hc        1 MOL      0.051455
     19 N2          4.4010    5.6550    0.9420 n         1 MOL     -0.556746
     20 C7          4.6450    4.5380    1.8510 c3        1 MOL      0.378076
     21 C8          3.5140    3.5350    1.8550 c         1 MOL      0.606629
     22 O5          2.3350    3.9120    1.7750 o         1 MOL     -0.617853
     23 C9          4.9460    5.0630    3.2280 c3        1 MOL     -0.311946
     24 H8          3.9160    6.4590    1.3030 hn        1 MOL      0.312212
     25 H9          5.5110    3.9700    1.5130 h1        1 MOL      0.056772
     26 H10         5.0050    4.3320    4.0360 hc        1 MOL      0.077869
     27 H11         5.8920    5.5980    3.1410 hc        1 MOL      0.077869
     28 H12         4.2230    5.8220    3.5160 hc        1 MOL      0.077869
     29 N3          3.8540    2.2520    1.9700 n         1 MOL     -0.634273
     30 C10         5.0130    1.5630    2.4570 c3        1 MOL     -0.059992
     31 C11         5.5210    0.3870    1.6630 c         1 MOL      0.614345
     32 O6          4.8070   -0.2200    0.8320 o         1 MOL     -0.514964
     33 C12         4.5330    1.0490    3.8840 c3        1 MOL     -0.062643
     34 C13         3.2000    0.3000    4.0210 c         1 MOL      0.631640
     35 O7          2.8370   -0.1240    5.1120 o         1 MOL     -0.652927
     36 O8          2.4730    0.0540    3.0050 o         1 MOL     -0.652927
     37 H13         3.0810    1.6050    1.9700 hn        1 MOL      0.385532
     38 H14         5.8910    2.2030    2.5920 h1        1 MOL      0.033261
     39 H15         4.4370    1.8460    4.6290 hc        1 MOL      0.011888
     40 H16         5.2680    0.3500    4.3050 hc        1 MOL      0.011888
     41 N4          6.7280   -0.0190    2.0390 n         1 MOL     -0.384783
     42 C14         7.3430   -1.2380    1.4920 c3        1 MOL     -0.081592
     43 C15         8.5100   -1.0000    0.5240 c         1 MOL      0.570247
     44 O9          9.3890   -0.1410    0.7600 o         1 MOL     -0.548721
     45 H17         7.1090    0.4810    2.8300 hn        1 MOL      0.303487
     46 H18         6.5580   -1.9300    1.1840 h1        1 MOL      0.078261
     47 H19         7.8970   -1.5840    2.3620 h1        1 MOL      0.078261
     48 N5          8.6070   -1.7490   -0.5710 n         1 MOL     -0.492814
     49 C16         7.8010   -2.8530   -1.1060 c3        1 MOL      0.128339
     50 C17         6.6170   -2.3800   -2.0050 c         1 MOL      0.555365
     51 O10         6.6980   -1.5310   -2.8650 o         1 MOL     -0.509041
     52 C18         8.8100   -3.7210   -1.8490 c3        1 MOL     -0.310497
     53 C19         8.1750   -5.0270   -2.3390 c         1 MOL      0.743059
     54 N6          8.4600   -5.4670   -3.5430 n         1 MOL     -0.831635
     55 O11         7.4850   -5.6530   -1.5640 o         1 MOL     -0.575887
     56 H20         9.3360   -1.5450   -1.2380 hn        1 MOL      0.302482
     57 H21         7.4700   -3.3370   -0.1870 h1        1 MOL      0.053017
     58 H22         9.6570   -3.9630   -1.2200 hc        1 MOL      0.090411
     59 H23         9.1540   -3.1920   -2.7400 hc        1 MOL      0.090411
     60 H24         9.0510   -4.9490   -4.1780 hn        1 MOL      0.377374
     61 H25         7.9550   -6.2630   -3.8980 hn        1 MOL      0.377374
     62 N7          5.4970   -3.0620   -1.8690 n         1 MOL     -0.367350
     63 C20         4.3860   -3.0470   -2.8530 c3        1 MOL     -0.191317
     64 C21         3.0950   -3.8180   -2.4650 c         1 MOL      0.593643
     65 O12         2.3020   -4.1240   -3.3950 o         1 MOL     -0.566762
     66 H26         5.3080   -3.6280   -1.0530 hn        1 MOL      0.191082
     67 H27         4.7240   -3.2620   -3.8630 h1        1 MOL      0.129947
     68 H28         4.1250   -1.9850   -2.8740 h1        1 MOL      0.129947
     69 N8          2.9430   -4.2410   -1.1990 n         1 MOL     -0.461344
     70 C22         1.6560   -4.8960   -0.7930 c3        1 MOL      0.132998
     71 C23         0.5070   -3.9060   -0.6760 c         1 MOL      0.460619
     72 O13         0.6830   -2.7880   -0.2310 o         1 MOL     -0.535120
     73 C24         1.8190   -5.7250    0.4970 c3        1 MOL      0.256873
     74 C25         0.5740   -6.2490    1.1370 c3        1 MOL     -0.133856
     75 O14         2.6570   -6.7720    0.1380 oh        1 MOL     -0.679593
     76 H29         3.5270   -3.8390   -0.4770 hn        1 MOL      0.343757
     77 H30         1.3460   -5.6700   -1.4980 h1        1 MOL      0.084553
     78 H31         2.3390   -5.1980    1.2890 h1        1 MOL     -0.020688
     79 H32         2.8340   -7.3390    0.8910 ho        1 MOL      0.413146
     80 H33        -0.1700   -6.5260    0.3870 hc        1 MOL      0.038221
     81 H34         0.8160   -7.1110    1.7550 hc        1 MOL      0.038221
     82 H35         0.1260   -5.5090    1.7970 hc        1 MOL      0.038221
     83 N9         -0.6780   -4.2840   -1.1190 n         1 MOL     -0.304978
     84 C26        -1.9310   -3.5990   -1.1700 c3        1 MOL     -0.012804
     85 C27        -2.7370   -3.8140    0.1820 c         1 MOL      0.431937
     86 O15        -2.9080   -4.9650    0.5940 o         1 MOL     -0.542578
     87 C28        -2.7900   -3.9350   -2.3980 c3        1 MOL      0.351443
     88 C29        -3.8010   -2.7900   -2.6460 c3        1 MOL     -0.102956
     89 C30        -2.0420   -4.1410   -3.6640 c3        1 MOL     -0.425718
     90 C31        -5.0840   -3.2900   -3.3380 c3        1 MOL     -0.287500
     91 H36        -0.6940   -5.1140   -1.6850 hn        1 MOL      0.224042
     92 H37        -1.6620   -2.5540   -1.3070 h1        1 MOL      0.049262
     93 H38        -3.1970   -4.8580   -1.9920 hc        1 MOL     -0.048572
     94 H39        -3.4170   -1.9220   -3.1650 hc        1 MOL      0.047981
     95 H40        -3.9020   -2.2650   -1.6880 hc        1 MOL      0.047981
     96 H41        -1.6740   -3.1500   -3.9320 hc        1 MOL      0.095169
     97 H42        -1.2660   -4.8860   -3.4790 hc        1 MOL      0.095169
     98 H43        -2.7350   -4.5690   -4.3980 hc        1 MOL      0.095169
     99 H44        -4.9210   -3.5680   -4.3740 hc        1 MOL      0.065677
    100 H45        -5.3380   -4.1950   -2.7750 hc        1 MOL      0.065677
    101 H46        -5.9440   -2.6260   -3.2980 hc        1 MOL      0.065677
    102 N10        -3.1630   -2.7190    0.7450 n         1 MOL     -0.362028
    103 C32        -3.9070   -2.8280    2.0620 c3        1 MOL      0.015398
    104 C33        -5.3490   -2.2360    2.0520 c         1 MOL      0.591056
    105 O16        -6.1320   -2.5130    2.9390 o         1 MOL     -0.545204
    106 C34        -3.1230   -2.2640    3.3110 c3        1 MOL     -0.245718
    107 C35        -1.7840   -2.9990    3.5180 c         1 MOL      0.901790
    108 O17        -1.6030   -3.8070    4.3900 o         1 MOL     -0.739474
    109 O18        -0.8070   -2.6380    2.8260 o         1 MOL     -0.739474
    110 H47        -2.8920   -1.8280    0.3440 hn        1 MOL      0.235858
    111 H48        -4.0840   -3.8760    2.3290 h1        1 MOL      0.119938
    112 H49        -3.6460   -2.3440    4.2600 hc        1 MOL      0.039212
    113 H50        -2.9360   -1.1860    3.2440 hc        1 MOL      0.039212
    114 N11        -5.7240   -1.4930    0.9410 n         1 MOL     -0.787189
    115 C36        -6.9500   -0.7000    0.9050 c3        1 MOL      0.592199
    116 C37        -6.7070    0.6800    0.2980 c         1 MOL      0.146325
    117 O19        -6.9380    0.9240   -0.8960 o         1 MOL     -0.408660
    118 C38        -8.0730   -1.4060    0.1680 c3        1 MOL     -0.221579
    119 C39        -9.4930   -0.8350    0.1240 ca        1 MOL      0.002799
    120 C40        -9.8880    0.1080    1.0780 ca        1 MOL     -0.102764
    121 C41       -10.2970   -1.0110   -1.0140 ca        1 MOL     -0.102764
    122 C42       -10.9720    0.9530    0.8870 ca        1 MOL     -0.146172
    123 C43       -11.4420   -0.2030   -1.1900 ca        1 MOL     -0.146172
    124 C44       -11.7450    0.8090   -0.2760 ca        1 MOL     -0.090817
    125 H51        -4.9810   -1.3010    0.2850 hn        1 MOL      0.437537
    126 H52        -7.2110   -0.6010    1.9570 h1        1 MOL     -0.067045
    127 H53        -8.0300   -2.4180    0.5810 hc        1 MOL      0.078078
    128 H54        -7.6320   -1.4380   -0.8230 hc        1 MOL      0.078078
    129 H55        -9.4530    0.2130    2.0610 ha        1 MOL      0.107890
    130 H56        -9.9780   -1.7880   -1.6920 ha        1 MOL      0.107890
    131 H57       -11.2820    1.6300    1.6670 ha        1 MOL      0.108140
    132 H58       -12.0000   -0.3950   -2.0930 ha        1 MOL      0.108140
    133 H59       -12.5990    1.4410   -0.4740 ha        1 MOL      0.091963
    134 N12        -6.0670    1.5870    1.0730 n         1 MOL     -0.045181
    135 C45        -5.9730    3.0410    0.6550 c3        1 MOL      0.107517
    136 C46        -5.1880    3.3600   -0.5890 c         1 MOL      0.109977
    137 O20        -5.3560    4.4300   -1.1180 o         1 MOL     -0.448970
    138 C47        -5.4870    3.7830    1.8830 c3        1 MOL     -0.003667
    139 C48        -6.0100    3.0270    3.0930 c3        1 MOL     -0.223287
    140 C49        -5.9330    1.6340    2.5500 c3        1 MOL     -0.125637
    141 H60        -6.9720    3.4260    0.4620 h1        1 MOL      0.086699
    142 H61        -4.4050    3.8450    1.9160 hc        1 MOL      0.041910
    143 H62        -5.9630    4.7660    1.8200 hc        1 MOL      0.041910
    144 H63        -5.3660    3.2280    3.9550 hc        1 MOL      0.087892
    145 H64        -7.0850    3.1990    3.1610 hc        1 MOL      0.087892
    146 H65        -4.9020    1.3040    2.6970 h1        1 MOL      0.104268
    147 H66        -6.6550    1.0790    3.1530 h1        1 MOL      0.104268
    148 N13        -4.4230    2.4340   -1.2470 n         1 MOL      0.009748
    149 C50        -3.7210    2.6610   -2.5110 c3        1 MOL     -0.000279
    150 C51        -4.7180    2.6760   -3.7130 c         1 MOL      0.334839
    151 O21        -4.5800    3.5900   -4.5720 o         1 MOL     -0.518307
    152 C52        -2.6840    1.6010   -2.7360 c3        1 MOL     -0.185363
    153 C53        -1.7900    1.2410   -1.5460 c3        1 MOL     -0.003893
    154 C54        -2.3080    0.1440   -0.5430 c         1 MOL      0.590993
    155 O22        -1.4560   -0.3960    0.1740 o         1 MOL     -0.645598
    156 O23        -3.5220   -0.1210   -0.5420 o         1 MOL     -0.645598
    157 H67        -4.3300    1.5400   -0.7870 hn        1 MOL      0.122454
    158 H68        -3.2320    3.6280   -2.5490 h1        1 MOL      0.088510
    159 H69        -1.9750    1.8530   -3.5270 hc        1 MOL      0.059138
    160 H70        -3.1330    0.6250   -2.9410 hc        1 MOL      0.059138
    161 H71        -1.5450    2.1240   -0.9560 hc        1 MOL      0.022590
    162 H72        -0.8350    0.9100   -1.9380 hc        1 MOL      0.022590
    163 N14        -5.8220    1.9140   -3.5320 n         1 MOL     -0.122323
    164 C55        -7.0140    1.9650   -4.3660 c3        1 MOL     -0.152149
    165 H73        -7.2560    0.9600   -4.7140 h1        1 MOL      0.070266
    166 H74        -7.8480    2.3600   -3.7860 h1        1 MOL      0.070266
    167 H75        -6.8300    2.6100   -5.2250 h1        1 MOL      0.070266
    168 H76        -5.8520    1.2110   -2.7950 hn        1 MOL      0.192780
    169 Ca1         0.5290   -0.8680    1.6650 Ca        1 MOL      1.625232
    170 O24         2.1950   -2.9270    2.4100 oh        1 MOL     -0.867949
    171 H77         1.7390   -3.6320    2.8600 ho        1 MOL      0.417278
    172 H78         3.0840   -2.9490    2.7690 ho        1 MOL      0.417278
    173 O25        -0.6360    0.3810    3.7550 oh        1 MOL     -0.867949
    174 H79        -0.4910    1.3230    3.8180 ho        1 MOL      0.417278
    175 H80        -1.0170    0.1380    4.6050 ho        1 MOL      0.417278
    176 O26         0.5930    1.8060    1.5190 oh        1 MOL     -0.867949
    177 H81        -0.0190    2.1580    2.1620 ho        1 MOL      0.417278
    178 H82         1.2620    2.4860    1.4300 ho        1 MOL      0.417278
    179 O27         2.2980   -0.2580   -0.1960 oh        1 MOL     -0.867949
    180 H83         2.2800    0.5690   -0.6850 ho        1 MOL      0.417278
    181 H84         3.2230   -0.3980   -0.0120 ho        1 MOL      0.417278
@<TRIPOS>BOND
     1    1    2 1   
     2    1    4 1   
     3    1    5 1   
     4    1    6 1   
     5    2    3 2   
     6    2    7 1   
     7    7    8 1   
     8    7   15 1   
     9    8    9 1   
    10    8   11 1   
    11    8   16 1   
    12    9   10 2   
    13    9   19 1   
    14   11   12 1   
    15   11   17 1   
    16   11   18 1   
    17   12   13 1   
    18   12   14 1   
    19   19   20 1   
    20   19   24 1   
    21   20   21 1   
    22   20   23 1   
    23   20   25 1   
    24   21   22 2   
    25   21   29 1   
    26   23   26 1   
    27   23   27 1   
    28   23   28 1   
    29   29   30 1   
    30   29   37 1   
    31   30   31 1   
    32   30   33 1   
    33   30   38 1   
    34   31   32 2   
    35   31   41 1   
    36   33   34 1   
    37   33   39 1   
    38   33   40 1   
    39   34   35 1   
    40   34   36 1   
    41   41   42 1   
    42   41   45 1   
    43   42   43 1   
    44   42   46 1   
    45   42   47 1   
    46   43   44 2   
    47   43   48 1   
    48   48   49 1   
    49   48   56 1   
    50   49   50 1   
    51   49   52 1   
    52   49   57 1   
    53   50   51 2   
    54   50   62 1   
    55   52   53 1   
    56   52   58 1   
    57   52   59 1   
    58   53   54 1   
    59   53   55 2   
    60   54   60 1   
    61   54   61 1   
    62   62   63 1   
    63   62   66 1   
    64   63   64 1   
    65   63   67 1   
    66   63   68 1   
    67   64   65 2   
    68   64   69 1   
    69   69   70 1   
    70   69   76 1   
    71   70   71 1   
    72   70   73 1   
    73   70   77 1   
    74   71   72 2   
    75   71   83 1   
    76   73   74 1   
    77   73   75 1   
    78   73   78 1   
    79   74   80 1   
    80   74   81 1   
    81   74   82 1   
    82   75   79 1   
    83   83   84 1   
    84   83   91 1   
    85   84   85 1   
    86   84   87 1   
    87   84   92 1   
    88   85   86 2   
    89   85  102 1   
    90   87   88 1   
    91   87   89 1   
    92   87   93 1   
    93   88   90 1   
    94   88   94 1   
    95   88   95 1   
    96   89   96 1   
    97   89   97 1   
    98   89   98 1   
    99   90   99 1   
   100   90  100 1   
   101   90  101 1   
   102  102  103 1   
   103  102  110 1   
   104  103  104 1   
   105  103  106 1   
   106  103  111 1   
   107  104  105 2   
   108  104  114 1   
   109  106  107 1   
   110  106  112 1   
   111  106  113 1   
   112  107  108 1   
   113  107  109 1   
   114  114  115 1   
   115  114  125 1   
   116  115  116 1   
   117  115  118 1   
   118  115  126 1   
   119  116  117 2   
   120  116  134 1   
   121  118  119 1   
   122  118  127 1   
   123  118  128 1   
   124  119  120 ar  
   125  119  121 ar  
   126  120  122 ar  
   127  120  129 1   
   128  121  123 ar  
   129  121  130 1   
   130  122  124 ar  
   131  122  131 1   
   132  123  124 ar  
   133  123  132 1   
   134  124  133 1   
   135  134  135 1   
   136  134  140 1   
   137  135  136 1   
   138  135  138 1   
   139  135  141 1   
   140  136  137 2   
   141  136  148 1   
   142  138  139 1   
   143  138  142 1   
   144  138  143 1   
   145  139  140 1   
   146  139  144 1   
   147  139  145 1   
   148  140  146 1   
   149  140  147 1   
   150  148  149 1   
   151  148  157 1   
   152  149  150 1   
   153  149  152 1   
   154  149  158 1   
   155  150  151 2   
   156  150  163 1   
   157  152  153 1   
   158  152  159 1   
   159  152  160 1   
   160  153  154 1   
   161  153  161 1   
   162  153  162 1   
   163  154  155 1   
   164  154  156 1   
   165  163  164 1   
   166  163  168 1   
   167  164  165 1   
   168  164  166 1   
   169  164  167 1   
   170  170  171 1   
   171  170  172 1   
   172  173  174 1   
   173  173  175 1   
   174  176  177 1   
   175  176  178 1   
   176  179  180 1   
   177  179  181 1   
@<TRIPOS>SUBSTRUCTURE
     1 MOL         1 TEMP              0 ****  ****    0 ROOT
