@<TRIPOS>MOLECULE
MOL
  181   177     1     0     0
SMALL
resp


@<TRIPOS>ATOM
      1 C1        -12.8090    5.6210    0.4610 c3        1 MOL     -0.464737
      2 C2        -11.7560    5.0030   -0.5250 c         1 MOL      0.725614
      3 O1        -10.9790    5.6910   -1.1810 o         1 MOL     -0.591686
      4 H1        -13.5300    6.2130   -0.1020 hc        1 MOL      0.120536
      5 H2        -13.3290    4.8210    0.9870 hc        1 MOL      0.120536
      6 H3        -12.3010    6.2600    1.1830 hc        1 MOL      0.120536
      7 N1        -11.7830    3.7050   -0.7330 n         1 MOL     -0.670282
      8 C3        -12.3440    2.7110    0.2210 c3        1 MOL      0.139507
      9 C4        -12.7400    1.3860   -0.4350 c         1 MOL      0.406755
     10 O2        -13.2670    0.4800    0.1920 o         1 MOL     -0.517263
     11 C5        -11.3720    2.5450    1.4270 c3        1 MOL     -0.260295
     12 C6         -9.9390    2.2270    1.0710 c         1 MOL      0.834246
     13 O3         -9.1640    2.0750    2.0170 o         1 MOL     -0.765754
     14 O4         -9.5120    2.1490   -0.1180 o         1 MOL     -0.765754
     15 H4        -11.3090    3.3920   -1.5680 hn        1 MOL      0.357785
     16 H5        -13.3030    3.0670    0.6050 h1        1 MOL      0.073368
     17 H6        -11.8030    1.8700    2.1570 hc        1 MOL      0.081538
     18 H7        -11.3160    3.4860    1.9680 hc        1 MOL      0.081538
     19 N2        -12.3460    1.2260   -1.7150 n         1 MOL     -0.404934
     20 C7        -12.5660    0.0520   -2.4820 c3        1 MOL      0.214828
     21 C8        -11.5490   -1.0350   -2.3100 c         1 MOL      0.310982
     22 O5        -11.7150   -2.0960   -2.9500 o         1 MOL     -0.539021
     23 C9        -12.5350    0.5280   -3.9490 c3        1 MOL     -0.300903
     24 H8        -11.8840    1.9990   -2.1710 hn        1 MOL      0.297020
     25 H9        -13.5380   -0.3380   -2.1760 h1        1 MOL      0.075454
     26 H10       -11.6250    0.2720   -4.4850 hc        1 MOL      0.084850
     27 H11       -13.4370    0.2710   -4.5030 hc        1 MOL      0.084850
     28 H12       -12.4310    1.6100   -3.9050 hc        1 MOL      0.084850
     29 N3        -10.5150   -0.8550   -1.4860 n         1 MOL     -0.071044
     30 C10        -9.5020   -1.9520   -1.3670 c3        1 MOL     -0.058441
     31 C11        -8.7740   -1.8880    0.0020 c         1 MOL      0.406729
     32 O6         -8.8590   -0.9300    0.7550 o         1 MOL     -0.492962
     33 C12        -8.3900   -1.9040   -2.4970 c3        1 MOL     -0.090733
     34 C13        -7.9240   -0.5290   -2.6280 c         1 MOL      0.660396
     35 O7         -7.2940    0.0780   -1.7260 o         1 MOL     -0.672792
     36 O8         -8.0940    0.0690   -3.7380 o         1 MOL     -0.672792
     37 H13       -10.4610    0.0470   -1.0330 hn        1 MOL      0.132835
     38 H14        -9.9850   -2.9300   -1.3670 h1        1 MOL      0.071146
     39 H15        -8.8670   -2.2380   -3.4110 hc        1 MOL      0.029692
     40 H16        -7.6110   -2.6240   -2.2250 hc        1 MOL      0.029692
     41 N4         -8.1190   -2.9690    0.3600 n         1 MOL     -0.332919
     42 C14        -7.2540   -3.1030    1.5880 c3        1 MOL     -0.259499
     43 C15        -6.0540   -2.1760    1.6760 c         1 MOL      0.604199
     44 O9         -5.9900   -1.1430    0.9670 o         1 MOL     -0.514600
     45 H17        -8.1140   -3.6000   -0.4180 hn        1 MOL      0.277817
     46 H18        -6.8460   -4.1200    1.5920 h1        1 MOL      0.127713
     47 H19        -7.8890   -2.9320    2.4640 h1        1 MOL      0.127713
     48 N5         -5.0730   -2.5450    2.4710 n         1 MOL     -0.497875
     49 C16        -3.8710   -1.7580    2.7850 c3        1 MOL     -0.026952
     50 C17        -2.6360   -2.4130    2.1350 c         1 MOL      0.490011
     51 O10        -1.4780   -2.0520    2.4090 o         1 MOL     -0.478648
     52 C18        -3.6240   -1.7680    4.2990 c3        1 MOL     -0.141991
     53 C19        -4.6790   -1.2670    5.2310 c         1 MOL      0.728202
     54 N6         -5.1480   -2.1320    6.1100 n         1 MOL     -0.826942
     55 O11        -5.0500   -0.1340    5.1370 o         1 MOL     -0.548551
     56 H20        -5.1320   -3.4010    2.9940 hn        1 MOL      0.268252
     57 H21        -3.9520   -0.6950    2.5420 h1        1 MOL      0.171145
     58 H22        -2.6960   -1.2560    4.5630 hc        1 MOL      0.056715
     59 H23        -3.4060   -2.8190    4.4620 hc        1 MOL      0.056715
     60 H24        -4.7500   -3.0580    6.2080 hn        1 MOL      0.369762
     61 H25        -5.9450   -1.9150    6.7070 hn        1 MOL      0.369762
     62 N7         -2.8100   -3.2780    1.1870 n         1 MOL     -0.465532
     63 C20        -1.6880   -3.7750    0.3170 c3        1 MOL      0.033799
     64 C21        -1.0880   -2.7140   -0.5890 c         1 MOL      0.490204
     65 O12        -1.5700   -1.5630   -0.7360 o         1 MOL     -0.517522
     66 H26        -3.7180   -3.7120    1.1870 hn        1 MOL      0.302968
     67 H27        -2.0980   -4.6190   -0.2480 h1        1 MOL      0.079088
     68 H28        -0.9590   -4.2250    0.9900 h1        1 MOL      0.079088
     69 N8         -0.0310   -3.0040   -1.3200 n         1 MOL     -0.303284
     70 C22         0.8990   -4.1110   -1.1580 c3        1 MOL     -0.036548
     71 C23         2.4160   -3.6960   -1.0480 c         1 MOL      0.694302
     72 O13         3.2600   -4.4610   -0.5600 o         1 MOL     -0.530672
     73 C24         0.7690   -5.1760   -2.1910 c3        1 MOL      0.241143
     74 C25        -0.6200   -5.7670   -2.3420 c3        1 MOL     -0.076449
     75 O14         1.1020   -4.6790   -3.5090 oh        1 MOL     -0.612906
     76 H29         0.2120   -2.2940   -1.9910 hn        1 MOL      0.229348
     77 H30         0.6060   -4.5070   -0.1880 h1        1 MOL      0.054570
     78 H31         1.4500   -5.9630   -1.8810 h1        1 MOL      0.007769
     79 H32         0.9590   -5.4310   -4.0940 ho        1 MOL      0.395380
     80 H33        -1.3040   -4.9310   -2.4830 hc        1 MOL      0.003436
     81 H34        -0.6750   -6.3390   -3.2600 hc        1 MOL      0.003436
     82 H35        -0.9200   -6.3770   -1.4870 hc        1 MOL      0.003436
     83 N9          2.7340   -2.5190   -1.5450 n         1 MOL     -0.663669
     84 C26         4.1210   -2.0560   -1.5150 c3        1 MOL      0.041500
     85 C27         4.4630   -1.8230   -0.0450 c         1 MOL      0.342002
     86 O15         3.5290   -1.4950    0.7430 o         1 MOL     -0.521630
     87 C28         4.3050   -0.7710   -2.3780 c3        1 MOL      0.338349
     88 C29         3.1310    0.2010   -2.1330 c3        1 MOL     -0.084264
     89 C30         4.3950   -1.0770   -3.9060 c3        1 MOL     -0.497775
     90 C31         3.4680    1.6280   -2.5490 c3        1 MOL     -0.292268
     91 H36         1.9900   -2.0800   -2.0760 hn        1 MOL      0.330952
     92 H37         4.8030   -2.8650   -1.7990 h1        1 MOL      0.106734
     93 H38         5.2520   -0.3050   -2.1030 hc        1 MOL     -0.010478
     94 H39         2.7540    0.2120   -1.1140 hc        1 MOL      0.062619
     95 H40         2.2750   -0.0730   -2.7480 hc        1 MOL      0.062619
     96 H41         3.4130   -1.1780   -4.3630 hc        1 MOL      0.108447
     97 H42         5.0140   -0.3170   -4.3920 hc        1 MOL      0.108447
     98 H43         4.9460   -2.0270   -3.8910 hc        1 MOL      0.108447
     99 H44         2.5820    2.1350   -2.9260 hc        1 MOL      0.073200
    100 H45         3.8450    2.0900   -1.6450 hc        1 MOL      0.073200
    101 H46         4.2020    1.6600   -3.3570 hc        1 MOL      0.073200
    102 N10         5.6650   -1.9170    0.4920 n         1 MOL     -0.159706
    103 C32         6.9450   -2.2250   -0.1780 c3        1 MOL      0.025688
    104 C33         8.0340   -1.3680    0.4290 c         1 MOL      0.142686
    105 O16         7.9620   -0.9730    1.6250 o         1 MOL     -0.381911
    106 C34         7.3830   -3.6840   -0.0760 c3        1 MOL     -0.071373
    107 C35         7.2910   -4.3320    1.3650 c         1 MOL      0.737280
    108 O17         6.3400   -4.9670    1.7680 o         1 MOL     -0.713017
    109 O18         8.3440   -4.3260    2.0670 o         1 MOL     -0.713017
    110 H47         5.5830   -1.8320    1.4980 hn        1 MOL      0.299178
    111 H48         6.9250   -1.9410   -1.2290 h1        1 MOL      0.011346
    112 H49         8.4050   -3.9380   -0.3690 hc        1 MOL     -0.033712
    113 H50         6.7030   -4.1920   -0.7630 hc        1 MOL     -0.033712
    114 N11         9.0150   -1.0800   -0.4030 n         1 MOL     -0.214438
    115 C36        10.1500   -0.2310   -0.1810 c3        1 MOL      0.245366
    116 C37        10.4990    0.5600   -1.5040 c         1 MOL      0.029472
    117 O19        10.3550   -0.0470   -2.5210 o         1 MOL     -0.448165
    118 C38        11.3600   -1.1420    0.1930 c3        1 MOL     -0.085374
    119 C39        12.6960   -0.4640    0.3530 ca        1 MOL      0.045356
    120 C40        13.5620   -0.4220   -0.7570 ca        1 MOL     -0.123253
    121 C41        13.0750    0.0210    1.6230 ca        1 MOL     -0.123253
    122 C42        14.8780    0.1960   -0.5970 ca        1 MOL     -0.158217
    123 C43        14.3240    0.6530    1.8310 ca        1 MOL     -0.158217
    124 C44        15.1750    0.8150    0.7110 ca        1 MOL     -0.132172
    125 H51         9.0680   -1.4680   -1.3330 hn        1 MOL      0.262881
    126 H52         9.9760    0.4670    0.6320 h1        1 MOL      0.016205
    127 H53        11.4420   -1.9450   -0.5430 hc        1 MOL      0.054750
    128 H54        10.9800   -1.6400    1.0940 hc        1 MOL      0.054750
    129 H55        13.3080   -0.8290   -1.7280 ha        1 MOL      0.139959
    130 H56        12.4190   -0.2340    2.4360 ha        1 MOL      0.139959
    131 H57        15.6180    0.2230   -1.3830 ha        1 MOL      0.122256
    132 H58        14.6250    1.0510    2.7850 ha        1 MOL      0.122256
    133 H59        16.0830    1.3750    0.9040 ha        1 MOL      0.101077
    134 N12        10.9000    1.8840   -1.4780 n         1 MOL      0.218080
    135 C45        11.2290    2.6390   -0.3270 c3        1 MOL     -0.173597
    136 C46         9.9740    3.1320    0.2860 c         1 MOL      0.475300
    137 O20         9.9360    3.3610    1.5040 o         1 MOL     -0.548271
    138 C47        12.3040    3.7320   -0.8000 c3        1 MOL      0.042966
    139 C48        11.8460    3.8590   -2.2460 c3        1 MOL      0.060521
    140 C49        11.5670    2.4700   -2.6430 c3        1 MOL     -0.165623
    141 H60        11.7640    2.0440    0.4140 h1        1 MOL      0.119891
    142 H61        12.3030    4.7180   -0.3470 hc        1 MOL      0.004727
    143 H62        13.3370    3.3850   -0.8200 hc        1 MOL      0.004727
    144 H63        10.9590    4.4930   -2.3360 hc        1 MOL     -0.008208
    145 H64        12.6410    4.2560   -2.8650 hc        1 MOL     -0.008208
    146 H65        10.9220    2.4640   -3.5190 h1        1 MOL      0.056549
    147 H66        12.4900    1.9190   -2.8420 h1        1 MOL      0.056549
    148 N13         8.8600    3.3040   -0.4090 n         1 MOL     -0.439043
    149 C50         7.5850    3.6590    0.1670 c3        1 MOL      0.260791
    150 C51         6.7540    4.4120   -0.8890 c         1 MOL      0.379792
    151 O21         6.7730    3.9900   -2.0490 o         1 MOL     -0.562751
    152 C52         7.0030    2.2930    0.6550 c3        1 MOL      0.043334
    153 C53         5.6540    2.3340    1.3320 c3        1 MOL     -0.027990
    154 C54         5.8890    2.3490    2.8280 c         1 MOL      0.613064
    155 O22         5.1800    1.5950    3.5530 o         1 MOL     -0.677448
    156 O23         6.8250    2.9740    3.3230 o         1 MOL     -0.677448
    157 H67         8.8620    3.0540   -1.3880 hn        1 MOL      0.230167
    158 H68         7.7690    4.3010    1.0190 h1        1 MOL      0.023009
    159 H69         7.6820    1.7070    1.2680 hc        1 MOL      0.033875
    160 H70         6.8290    1.7750   -0.2800 hc        1 MOL      0.033875
    161 H71         5.1470    1.3850    1.1640 hc        1 MOL     -0.031918
    162 H72         4.9920    3.0780    0.9020 hc        1 MOL     -0.031918
    163 N14         6.0070    5.4980   -0.6270 n         1 MOL     -0.372774
    164 C55         5.7480    6.1180    0.6970 c3        1 MOL     -0.015571
    165 H73         4.8870    6.7830    0.6240 h1        1 MOL      0.047770
    166 H74         5.5430    5.3380    1.4300 h1        1 MOL      0.047770
    167 H75         6.6220    6.6890    1.0090 h1        1 MOL      0.047770
    168 H76         5.7680    5.9090   -1.5170 hn        1 MOL      0.267956
    169 Ca1        -7.1460    1.2340    0.5610 Ca        1 MOL      1.713492
    170 O24        -6.9090    0.4710    3.1330 oh        1 MOL     -0.829868
    171 H77        -7.7200    0.6470    3.6010 ho        1 MOL      0.402091
    172 H78        -6.2240    0.5170    3.8080 ho        1 MOL      0.402091
    173 O25        -4.6320    1.1690   -0.1970 oh        1 MOL     -0.829868
    174 H79        -4.1990    1.9790    0.0660 ho        1 MOL      0.402091
    175 H80        -3.9300    0.6140   -0.5310 ho        1 MOL      0.402091
    176 O26        -6.9480    3.3360   -0.9770 oh        1 MOL     -0.829868
    177 H81        -7.4120    4.1550   -0.8090 ho        1 MOL      0.402091
    178 H82        -6.9800    3.2250   -1.9200 ho        1 MOL      0.402091
    179 O27        -5.7640    2.9590    2.1190 oh        1 MOL     -0.829868
    180 H83        -4.8280    3.1790    2.1540 ho        1 MOL      0.402091
    181 H84        -6.1970    3.7940    1.9590 ho        1 MOL      0.402091
@<TRIPOS>BOND
     1    1    2 1   
     2    1    4 1   
     3    1    5 1   
     4    1    6 1   
     5    2    3 2   
     6    2    7 1   
     7    7    8 1   
     8    7   15 1   
     9    8    9 1   
    10    8   11 1   
    11    8   16 1   
    12    9   10 2   
    13    9   19 1   
    14   11   12 1   
    15   11   17 1   
    16   11   18 1   
    17   12   13 1   
    18   12   14 1   
    19   19   20 1   
    20   19   24 1   
    21   20   21 1   
    22   20   23 1   
    23   20   25 1   
    24   21   22 2   
    25   21   29 1   
    26   23   26 1   
    27   23   27 1   
    28   23   28 1   
    29   29   30 1   
    30   29   37 1   
    31   30   31 1   
    32   30   33 1   
    33   30   38 1   
    34   31   32 2   
    35   31   41 1   
    36   33   34 1   
    37   33   39 1   
    38   33   40 1   
    39   34   35 1   
    40   34   36 1   
    41   41   42 1   
    42   41   45 1   
    43   42   43 1   
    44   42   46 1   
    45   42   47 1   
    46   43   44 2   
    47   43   48 1   
    48   48   49 1   
    49   48   56 1   
    50   49   50 1   
    51   49   52 1   
    52   49   57 1   
    53   50   51 2   
    54   50   62 1   
    55   52   53 1   
    56   52   58 1   
    57   52   59 1   
    58   53   54 1   
    59   53   55 2   
    60   54   60 1   
    61   54   61 1   
    62   62   63 1   
    63   62   66 1   
    64   63   64 1   
    65   63   67 1   
    66   63   68 1   
    67   64   65 2   
    68   64   69 1   
    69   69   70 1   
    70   69   76 1   
    71   70   71 1   
    72   70   73 1   
    73   70   77 1   
    74   71   72 2   
    75   71   83 1   
    76   73   74 1   
    77   73   75 1   
    78   73   78 1   
    79   74   80 1   
    80   74   81 1   
    81   74   82 1   
    82   75   79 1   
    83   83   84 1   
    84   83   91 1   
    85   84   85 1   
    86   84   87 1   
    87   84   92 1   
    88   85   86 2   
    89   85  102 1   
    90   87   88 1   
    91   87   89 1   
    92   87   93 1   
    93   88   90 1   
    94   88   94 1   
    95   88   95 1   
    96   89   96 1   
    97   89   97 1   
    98   89   98 1   
    99   90   99 1   
   100   90  100 1   
   101   90  101 1   
   102  102  103 1   
   103  102  110 1   
   104  103  104 1   
   105  103  106 1   
   106  103  111 1   
   107  104  105 2   
   108  104  114 1   
   109  106  107 1   
   110  106  112 1   
   111  106  113 1   
   112  107  108 1   
   113  107  109 1   
   114  114  115 1   
   115  114  125 1   
   116  115  116 1   
   117  115  118 1   
   118  115  126 1   
   119  116  117 2   
   120  116  134 1   
   121  118  119 1   
   122  118  127 1   
   123  118  128 1   
   124  119  120 ar  
   125  119  121 ar  
   126  120  122 ar  
   127  120  129 1   
   128  121  123 ar  
   129  121  130 1   
   130  122  124 ar  
   131  122  131 1   
   132  123  124 ar  
   133  123  132 1   
   134  124  133 1   
   135  134  135 1   
   136  134  140 1   
   137  135  136 1   
   138  135  138 1   
   139  135  141 1   
   140  136  137 2   
   141  136  148 1   
   142  138  139 1   
   143  138  142 1   
   144  138  143 1   
   145  139  140 1   
   146  139  144 1   
   147  139  145 1   
   148  140  146 1   
   149  140  147 1   
   150  148  149 1   
   151  148  157 1   
   152  149  150 1   
   153  149  152 1   
   154  149  158 1   
   155  150  151 2   
   156  150  163 1   
   157  152  153 1   
   158  152  159 1   
   159  152  160 1   
   160  153  154 1   
   161  153  161 1   
   162  153  162 1   
   163  154  155 1   
   164  154  156 1   
   165  163  164 1   
   166  163  168 1   
   167  164  165 1   
   168  164  166 1   
   169  164  167 1   
   170  170  171 1   
   171  170  172 1   
   172  173  174 1   
   173  173  175 1   
   174  176  177 1   
   175  176  178 1   
   176  179  180 1   
   177  179  181 1   
@<TRIPOS>SUBSTRUCTURE
     1 MOL         1 TEMP              0 ****  ****    0 ROOT
