@<TRIPOS>MOLECULE
MOL
  186   183     1     0     0
SMALL
resp


@<TRIPOS>ATOM
      1 C1         12.5040    5.2750   -2.1360 c3        1 MOL     -0.336401
      2 C2         11.9710    3.9210   -1.6410 c         1 MOL      0.512781
      3 O1         12.6270    2.8340   -1.8230 o         1 MOL     -0.548791
      4 H1         11.6750    5.9750   -2.2420 hc        1 MOL      0.103983
      5 H2         13.2210    5.6690   -1.4140 hc        1 MOL      0.103983
      6 H3         12.9930    5.1430   -3.1010 hc        1 MOL      0.103983
      7 N1         10.8280    3.8950   -0.9010 n         1 MOL     -0.121743
      8 C3         10.3640    2.8130   -0.0110 c3        1 MOL     -0.423414
      9 C4          9.1680    2.0700   -0.6260 c         1 MOL      0.471113
     10 O2          8.1230    2.6610   -0.8530 o         1 MOL     -0.551365
     11 C5         10.1390    3.2270    1.4310 c3        1 MOL      0.270747
     12 C6          9.4240    4.5740    1.6040 c         1 MOL      0.615682
     13 O3          8.5940    4.9740    0.7240 o         1 MOL     -0.682155
     14 O4          9.5900    5.2610    2.6370 o         1 MOL     -0.682155
     15 H4         10.2550    4.7250   -0.8150 hn        1 MOL      0.073012
     16 H5         11.1430    2.0580    0.0030 h1        1 MOL      0.135510
     17 H6         11.0880    3.2990    1.9660 hc        1 MOL      0.003412
     18 H7          9.5680    2.4420    1.9430 hc        1 MOL      0.003412
     19 N2          9.1940    0.6930   -0.7410 n         1 MOL     -0.307832
     20 C7          8.0440   -0.0230   -1.2590 c3        1 MOL     -0.130471
     21 C8          6.9390   -0.0540   -0.2210 c         1 MOL      0.510504
     22 O5          7.1650   -0.0160    0.9740 o         1 MOL     -0.526736
     23 C9          8.3380   -1.4080   -1.8010 c3        1 MOL     -0.409233
     24 C10         8.7170   -2.4990   -0.7550 c3        1 MOL      0.269395
     25 C11         9.4080   -3.7210   -1.3440 c3        1 MOL     -0.021488
     26 C12         9.4620   -4.8860   -0.2450 c3        1 MOL      0.027361
     27 N3         10.1230   -6.1110   -0.8910 n4        1 MOL     -0.179630
     28 H8         10.0500    0.2070   -0.5100 hn        1 MOL      0.286673
     29 H9          7.6820    0.5170   -2.1320 h1        1 MOL      0.185947
     30 H10         9.2020   -1.3380   -2.4580 hc        1 MOL      0.120587
     31 H11         7.4160   -1.7660   -2.2740 hc        1 MOL      0.120587
     32 H12         7.8410   -2.8550   -0.2090 hc        1 MOL     -0.014807
     33 H13         9.4300   -2.1870    0.0020 hc        1 MOL     -0.014807
     34 H14        10.4490   -3.4820   -1.5760 hc        1 MOL      0.007638
     35 H15         8.8360   -4.0550   -2.2090 hc        1 MOL      0.007638
     36 H16         8.4750   -5.0340    0.1840 hx        1 MOL      0.077183
     37 H17        10.0600   -4.3950    0.5220 hx        1 MOL      0.077183
     38 H18        10.9950   -6.0450   -1.3950 hn        1 MOL      0.211460
     39 H19        10.2830   -6.8390   -0.2050 hn        1 MOL      0.211460
     40 H20         9.4810   -6.5310   -1.5570 hn        1 MOL      0.211460
     41 N4          5.7110    0.0220   -0.7480 n         1 MOL     -0.180196
     42 C13         4.4810    0.1560   -0.0140 c3        1 MOL      0.208937
     43 C14         3.6280   -1.1180   -0.1710 c         1 MOL      0.149881
     44 O6          3.6740   -1.8260   -1.1790 o         1 MOL     -0.540457
     45 C15         3.8020    1.4680   -0.3820 c3        1 MOL      0.181736
     46 C16         4.8130    2.6060   -0.6250 c         1 MOL      0.556072
     47 O7          5.0150    2.9370   -1.8710 o         1 MOL     -0.752036
     48 O8          5.2110    3.3030    0.3610 o         1 MOL     -0.752036
     49 H21         5.6300    0.1840   -1.7450 hn        1 MOL      0.173429
     50 H22         4.7010    0.2990    1.0400 h1        1 MOL      0.045364
     51 H23         3.1660    1.8030    0.4370 hc        1 MOL     -0.022329
     52 H24         3.1260    1.3600   -1.2270 hc        1 MOL     -0.022329
     53 N5          2.9140   -1.5770    0.8750 n         1 MOL     -0.047080
     54 C17         2.7500   -1.0340    2.1860 c3        1 MOL     -0.335102
     55 C18         1.9880   -2.1120    3.0550 c         1 MOL      0.686536
     56 O9          2.2190   -3.2740    2.7940 o         1 MOL     -0.544877
     57 H25         2.2120   -2.2880    0.6950 hn        1 MOL      0.163044
     58 H26         2.2380   -0.0720    2.2000 h1        1 MOL      0.108469
     59 H27         3.6990   -0.9270    2.6980 h1        1 MOL      0.108469
     60 N6          1.1380   -1.6880    4.0260 n         1 MOL     -0.449449
     61 C19         0.5950   -2.6190    5.0410 c3        1 MOL     -0.017416
     62 C20        -0.3830   -3.6360    4.3650 c         1 MOL      0.522825
     63 O10        -1.3840   -3.2280    3.7870 o         1 MOL     -0.485140
     64 C21         0.0960   -1.7660    6.1680 c3        1 MOL     -0.274301
     65 C22        -0.5370   -2.6540    7.2830 c         1 MOL      0.780561
     66 O11        -1.4600   -2.1830    7.9440 o         1 MOL     -0.673848
     67 O12         0.0380   -3.7510    7.5320 o         1 MOL     -0.673848
     68 H28         1.1670   -0.7300    4.3070 hn        1 MOL      0.282265
     69 H29         1.4730   -3.1640    5.3770 h1        1 MOL      0.055556
     70 H30        -0.7100   -1.1200    5.8310 hc        1 MOL      0.087269
     71 H31         0.9330   -1.2480    6.6340 hc        1 MOL      0.087269
     72 N7         -0.0630   -4.9260    4.4340 n         1 MOL     -0.335874
     73 C23        -0.8550   -6.0040    3.7990 c3        1 MOL     -0.213308
     74 C24        -0.9100   -6.1080    2.2520 c         1 MOL      0.481453
     75 O13        -1.7210   -6.8770    1.7150 o         1 MOL     -0.545239
     76 H32         0.8160   -5.1510    4.8690 hn        1 MOL      0.276684
     77 H33        -1.9030   -5.9480    4.1190 h1        1 MOL      0.134882
     78 H34        -0.4720   -6.9700    4.1330 h1        1 MOL      0.134882
     79 N8         -0.2690   -5.1020    1.5680 n         1 MOL     -0.032463
     80 C25        -0.2540   -4.8360    0.0770 c3        1 MOL     -0.229198
     81 C26        -0.4270   -3.3690   -0.2080 c         1 MOL      0.542106
     82 O14        -0.0420   -2.4470    0.5140 o         1 MOL     -0.463075
     83 C27         0.9640   -5.4690   -0.5880 c3        1 MOL      0.449250
     84 C28         2.3190   -5.3690    0.0840 c3        1 MOL     -0.457433
     85 O15         0.7770   -6.8480   -0.7650 oh        1 MOL     -0.619877
     86 H35         0.1290   -4.4010    2.1860 hn        1 MOL      0.050754
     87 H36        -1.0340   -5.4440   -0.3760 h1        1 MOL      0.082218
     88 H37         0.9570   -5.0230   -1.5730 h1        1 MOL     -0.060847
     89 H38         1.0800   -7.0370   -1.6570 ho        1 MOL      0.380709
     90 H39         3.0480   -5.8050   -0.5920 hc        1 MOL      0.122418
     91 H40         2.4680   -4.3390    0.4250 hc        1 MOL      0.122418
     92 H41         2.2440   -5.8700    1.0500 hc        1 MOL      0.122418
     93 N9         -1.0030   -3.1160   -1.3610 n         1 MOL     -0.333382
     94 C29        -1.3100   -1.8260   -1.9650 c3        1 MOL     -0.278827
     95 C30        -2.7880   -1.5850   -2.0440 c         1 MOL      0.992529
     96 O16        -3.2910   -0.5200   -1.9300 o         1 MOL     -0.618190
     97 C31        -0.6260   -1.6050   -3.3530 c3        1 MOL     -0.016757
     98 C32         0.9430   -1.6600   -3.2070 c3        1 MOL      0.041181
     99 C33        -1.0970   -0.2890   -4.0050 c3        1 MOL     -0.290560
    100 C34         1.6620   -1.6350   -4.5370 c3        1 MOL     -0.300969
    101 H42        -1.2070   -3.9550   -1.8860 hn        1 MOL      0.250419
    102 H43        -1.0820   -1.0060   -1.2840 h1        1 MOL      0.109576
    103 H44        -0.8230   -2.4670   -3.9840 hc        1 MOL      0.032681
    104 H45         1.3290   -2.5380   -2.7060 hc        1 MOL      0.089944
    105 H46         1.3670   -0.7920   -2.6960 hc        1 MOL      0.089944
    106 H47        -1.0970    0.5510   -3.3070 hc        1 MOL      0.093847
    107 H48        -0.3740    0.0580   -4.7340 hc        1 MOL      0.093847
    108 H49        -2.1180   -0.3870   -4.3780 hc        1 MOL      0.093847
    109 H50         1.3510   -2.5400   -5.0590 hc        1 MOL      0.066055
    110 H51         1.4420   -0.7400   -5.1250 hc        1 MOL      0.066055
    111 H52         2.6920   -1.9910   -4.5070 hc        1 MOL      0.066055
    112 N10        -3.5280   -2.6550   -2.2370 n         1 MOL     -0.737451
    113 C35        -5.0060   -2.6590   -2.1060 c3        1 MOL      0.020242
    114 C36        -5.7540   -1.8000   -3.2010 c         1 MOL      0.668924
    115 O17        -5.1970   -1.6220   -4.2770 o         1 MOL     -0.510475
    116 C37        -5.4570   -4.1460   -2.0030 c3        1 MOL      0.250200
    117 C38        -4.8360   -4.9140   -0.8500 c3        1 MOL     -0.323008
    118 O18        -6.8610   -4.2090   -1.8350 oh        1 MOL     -0.635635
    119 H53        -3.1080   -3.5740   -2.2990 hn        1 MOL      0.323638
    120 H54        -5.2770   -2.1790   -1.1610 h1        1 MOL      0.096999
    121 H55        -5.3270   -4.6640   -2.9510 h1        1 MOL      0.028702
    122 H56        -7.2000   -5.0060   -2.2620 ho        1 MOL      0.421249
    123 H57        -3.7460   -4.8980   -0.8800 hc        1 MOL      0.106072
    124 H58        -5.1230   -4.4850    0.1080 hc        1 MOL      0.106072
    125 H59        -5.1450   -5.9650   -0.8550 hc        1 MOL      0.106072
    126 N11        -6.9900   -1.4250   -2.7630 n         1 MOL     -0.623527
    127 C39        -7.9390   -0.7290   -3.6700 c3        1 MOL      0.020055
    128 C40        -8.2970    0.6950   -3.1980 c         1 MOL      0.552417
    129 O19        -8.8750    1.4080   -3.9720 o         1 MOL     -0.579309
    130 C41        -9.2200   -1.4820   -3.8680 c3        1 MOL      0.331093
    131 C42        -9.8600   -1.9890   -2.6080 c3        1 MOL     -0.144162
    132 O20        -8.8350   -2.6090   -4.5730 oh        1 MOL     -0.606556
    133 H60        -7.3670   -1.7390   -1.8720 hn        1 MOL      0.366940
    134 H61        -7.4780   -0.6430   -4.6500 h1        1 MOL      0.082087
    135 H62        -9.9150   -0.8640   -4.4290 h1        1 MOL     -0.007064
    136 H63        -8.8790   -2.3950   -5.5150 ho        1 MOL      0.386666
    137 H64        -9.2200   -2.6420   -2.0080 hc        1 MOL      0.041372
    138 H65       -10.2460   -1.1690   -2.0090 hc        1 MOL      0.041372
    139 H66       -10.7250   -2.5840   -2.9030 hc        1 MOL      0.041372
    140 N12        -8.0030    1.0860   -1.9630 n         1 MOL     -0.303245
    141 C43        -8.4180    2.3940   -1.3550 c3        1 MOL      0.004341
    142 C44        -7.4170    2.7980   -0.2710 c         1 MOL      0.494218
    143 O21        -6.7700    1.9240    0.3070 o         1 MOL     -0.480889
    144 C45        -9.8420    2.1960   -0.8530 c3        1 MOL     -0.225904
    145 C46       -10.0560    1.2630    0.3890 c3        1 MOL     -0.145287
    146 C47       -11.5190    0.9470    0.7410 c3        1 MOL      0.108768
    147 C48       -12.4680    2.1180    0.8530 c3        1 MOL     -0.008912
    148 N13       -12.3260    2.8160    2.1890 n4        1 MOL     -0.316508
    149 H67        -7.5020    0.5100   -1.3000 hn        1 MOL      0.193756
    150 H68        -8.4170    3.1330   -2.1620 h1        1 MOL      0.100359
    151 H69       -10.4800    1.7810   -1.6320 hc        1 MOL      0.079793
    152 H70       -10.2100    3.1850   -0.5720 hc        1 MOL      0.079793
    153 H71        -9.6210    1.6940    1.2940 hc        1 MOL      0.071238
    154 H72        -9.5440    0.3390    0.1670 hc        1 MOL      0.071238
    155 H73       -11.5380    0.3010    1.6190 hc        1 MOL      0.016181
    156 H74       -11.9820    0.2630    0.0170 hc        1 MOL      0.016181
    157 H75       -13.4670    1.6980    0.8320 hx        1 MOL      0.082351
    158 H76       -12.3630    2.7900    0.0010 hx        1 MOL      0.082351
    159 H77       -11.4130    3.2290    2.2950 hn        1 MOL      0.285689
    160 H78       -12.8910    3.6520    2.1770 hn        1 MOL      0.285689
    161 H79       -12.6190    2.2760    2.9920 hn        1 MOL      0.285689
    162 N14        -7.2820    4.0990   -0.0040 n         1 MOL     -0.437505
    163 C49        -6.4630    4.5720    1.1700 c3        1 MOL      0.297865
    164 C50        -4.9630    4.3600    0.9830 c         1 MOL      0.305374
    165 O22        -4.3600    3.8850    1.9390 o         1 MOL     -0.504058
    166 C51        -6.8490    6.0480    1.5380 c3        1 MOL     -0.281346
    167 C52        -6.2830    6.5740    2.8600 c3        1 MOL     -0.145969
    168 C53        -7.1620    7.6530    3.5070 c         1 MOL      0.680986
    169 O23        -7.3520    8.7190    2.8850 o         1 MOL     -0.651712
    170 O24        -7.5440    7.5720    4.7070 o         1 MOL     -0.651712
    171 H80        -7.7740    4.8060   -0.5230 hn        1 MOL      0.241430
    172 H81        -6.8950    4.0280    2.0000 h1        1 MOL      0.044389
    173 H82        -7.9350    6.0210    1.5900 hc        1 MOL      0.073525
    174 H83        -6.5170    6.6860    0.7150 hc        1 MOL      0.073525
    175 H84        -5.2320    6.8180    2.6770 hc        1 MOL      0.063968
    176 H85        -6.2520    5.7680    3.5850 hc        1 MOL      0.063968
    177 N15        -4.2300    4.6430   -0.1320 n         1 MOL     -0.231806
    178 C54        -4.7510    5.4170   -1.2780 c3        1 MOL     -0.068412
    179 H86        -5.5030    6.1230   -0.9270 h1        1 MOL      0.052276
    180 H87        -3.9330    5.9620   -1.7500 h1        1 MOL      0.052276
    181 H88        -5.2000    4.7370   -2.0020 h1        1 MOL      0.052276
    182 H89        -3.2320    4.5420   -0.0370 hn        1 MOL      0.266407
    183 Ca1         6.7070    5.0110   -0.8870 Ca        1 MOL      1.716980
    184 O25         7.5100    4.2660   -3.3680 oh        1 MOL     -0.876050
    185 H90         8.3180    4.6650   -3.6950 ho        1 MOL      0.436499
    186 H91         7.2670    3.6320   -4.0320 ho        1 MOL      0.436499
@<TRIPOS>BOND
     1    1    2 1   
     2    1    4 1   
     3    1    5 1   
     4    1    6 1   
     5    2    3 2   
     6    2    7 1   
     7    7    8 1   
     8    7   15 1   
     9    8    9 1   
    10    8   11 1   
    11    8   16 1   
    12    9   10 2   
    13    9   19 1   
    14   11   12 1   
    15   11   17 1   
    16   11   18 1   
    17   12   13 1   
    18   12   14 1   
    19   19   20 1   
    20   19   28 1   
    21   20   21 1   
    22   20   23 1   
    23   20   29 1   
    24   21   22 2   
    25   21   41 1   
    26   23   24 1   
    27   23   30 1   
    28   23   31 1   
    29   24   25 1   
    30   24   32 1   
    31   24   33 1   
    32   25   26 1   
    33   25   34 1   
    34   25   35 1   
    35   26   27 1   
    36   26   36 1   
    37   26   37 1   
    38   27   38 1   
    39   27   39 1   
    40   27   40 1   
    41   41   42 1   
    42   41   49 1   
    43   42   43 1   
    44   42   45 1   
    45   42   50 1   
    46   43   44 2   
    47   43   53 1   
    48   45   46 1   
    49   45   51 1   
    50   45   52 1   
    51   46   47 1   
    52   46   48 1   
    53   53   54 1   
    54   53   57 1   
    55   54   55 1   
    56   54   58 1   
    57   54   59 1   
    58   55   56 2   
    59   55   60 1   
    60   60   61 1   
    61   60   68 1   
    62   61   62 1   
    63   61   64 1   
    64   61   69 1   
    65   62   63 2   
    66   62   72 1   
    67   64   65 1   
    68   64   70 1   
    69   64   71 1   
    70   65   66 1   
    71   65   67 1   
    72   72   73 1   
    73   72   76 1   
    74   73   74 1   
    75   73   77 1   
    76   73   78 1   
    77   74   75 2   
    78   74   79 1   
    79   79   80 1   
    80   79   86 1   
    81   80   81 1   
    82   80   83 1   
    83   80   87 1   
    84   81   82 2   
    85   81   93 1   
    86   83   84 1   
    87   83   85 1   
    88   83   88 1   
    89   84   90 1   
    90   84   91 1   
    91   84   92 1   
    92   85   89 1   
    93   93   94 1   
    94   93  101 1   
    95   94   95 1   
    96   94   97 1   
    97   94  102 1   
    98   95   96 2   
    99   95  112 1   
   100   97   98 1   
   101   97   99 1   
   102   97  103 1   
   103   98  100 1   
   104   98  104 1   
   105   98  105 1   
   106   99  106 1   
   107   99  107 1   
   108   99  108 1   
   109  100  109 1   
   110  100  110 1   
   111  100  111 1   
   112  112  113 1   
   113  112  119 1   
   114  113  114 1   
   115  113  116 1   
   116  113  120 1   
   117  114  115 2   
   118  114  126 1   
   119  116  117 1   
   120  116  118 1   
   121  116  121 1   
   122  117  123 1   
   123  117  124 1   
   124  117  125 1   
   125  118  122 1   
   126  126  127 1   
   127  126  133 1   
   128  127  128 1   
   129  127  130 1   
   130  127  134 1   
   131  128  129 2   
   132  128  140 1   
   133  130  131 1   
   134  130  132 1   
   135  130  135 1   
   136  131  137 1   
   137  131  138 1   
   138  131  139 1   
   139  132  136 1   
   140  140  141 1   
   141  140  149 1   
   142  141  142 1   
   143  141  144 1   
   144  141  150 1   
   145  142  143 2   
   146  142  162 1   
   147  144  145 1   
   148  144  151 1   
   149  144  152 1   
   150  145  146 1   
   151  145  153 1   
   152  145  154 1   
   153  146  147 1   
   154  146  155 1   
   155  146  156 1   
   156  147  148 1   
   157  147  157 1   
   158  147  158 1   
   159  148  159 1   
   160  148  160 1   
   161  148  161 1   
   162  162  163 1   
   163  162  171 1   
   164  163  164 1   
   165  163  166 1   
   166  163  172 1   
   167  164  165 2   
   168  164  177 1   
   169  166  167 1   
   170  166  173 1   
   171  166  174 1   
   172  167  168 1   
   173  167  175 1   
   174  167  176 1   
   175  168  169 1   
   176  168  170 1   
   177  177  178 1   
   178  177  182 1   
   179  178  179 1   
   180  178  180 1   
   181  178  181 1   
   182  184  185 1   
   183  184  186 1   
@<TRIPOS>SUBSTRUCTURE
     1 MOL         1 TEMP              0 ****  ****    0 ROOT
