@<TRIPOS>MOLECULE
MOL
  192   187     1     0     0
SMALL
resp


@<TRIPOS>ATOM
      1 C1         -9.7330    0.4660   -1.8740 c3        1 MOL     -0.236475
      2 C2         -8.5640   -0.0320   -1.0470 c         1 MOL      0.657596
      3 O1         -7.4890   -0.1020   -1.6680 o         1 MOL     -0.634439
      4 H1        -10.5480   -0.2570   -1.8230 hc        1 MOL      0.054050
      5 H2        -10.0740    1.4240   -1.4820 hc        1 MOL      0.054050
      6 H3         -9.4210    0.5870   -2.9110 hc        1 MOL      0.054050
      7 N1         -8.7390   -0.2820    0.2300 n         1 MOL     -0.405645
      8 C3         -7.6130   -0.5020    1.1270 c3        1 MOL     -0.072371
      9 C4         -7.0480   -1.8900    1.0570 c         1 MOL      0.639829
     10 O2         -6.9370   -2.6180    2.0110 o         1 MOL     -0.448236
     11 C5         -7.9770    0.0120    2.5510 c3        1 MOL     -0.204707
     12 C6         -9.2470   -0.5670    3.0930 c         1 MOL      0.681865
     13 O3        -10.1230   -0.9660    2.2860 o         1 MOL     -0.635948
     14 O4         -9.3430   -0.8600    4.2990 o         1 MOL     -0.635948
     15 H4         -9.6250   -0.1830    0.7100 hn        1 MOL      0.229755
     16 H5         -6.7830    0.1090    0.7790 h1        1 MOL      0.122291
     17 H6         -8.2650    1.0670    2.5830 hc        1 MOL      0.072653
     18 H7         -7.2080   -0.1660    3.2870 hc        1 MOL      0.072653
     19 N2         -6.6040   -2.2490   -0.1520 n         1 MOL     -0.559478
     20 C7         -5.9770   -3.5350   -0.4200 c3        1 MOL      0.275951
     21 C8         -4.5670   -3.7470    0.2170 c         1 MOL      0.475160
     22 O5         -4.4090   -4.6830    0.9920 o         1 MOL     -0.520414
     23 C9         -5.8970   -3.9970   -1.9350 c3        1 MOL     -0.119087
     24 C10        -7.2920   -3.8900   -2.7110 c3        1 MOL      0.076102
     25 C11        -8.4460   -4.7700   -2.1840 c3        1 MOL     -0.324907
     26 C12        -9.8270   -4.3600   -2.8570 c3        1 MOL     -0.035903
     27 N3         -9.7410   -4.8450   -4.2080 n4        1 MOL     -0.203320
     28 H8         -6.7320   -1.6120   -0.9200 hn        1 MOL      0.239810
     29 H9         -6.6430   -4.2660    0.0270 h1        1 MOL     -0.014502
     30 H10        -5.5710   -5.0350   -2.0110 hc        1 MOL      0.036688
     31 H11        -5.2070   -3.3190   -2.4230 hc        1 MOL      0.036688
     32 H12        -7.2140   -4.0730   -3.7850 hc        1 MOL     -0.014871
     33 H13        -7.5970   -2.8420   -2.7240 hc        1 MOL     -0.014871
     34 H14        -8.5730   -4.5640   -1.1170 hc        1 MOL      0.153903
     35 H15        -8.1090   -5.8030   -2.2070 hc        1 MOL      0.153903
     36 H16        -9.9890   -3.3030   -3.0870 hx        1 MOL      0.123960
     37 H17       -10.7220   -4.8050   -2.4170 hx        1 MOL      0.123960
     38 H18        -9.5560   -5.8270   -4.3460 hn        1 MOL      0.275236
     39 H19       -10.5010   -4.4790   -4.7660 hn        1 MOL      0.275236
     40 H20        -8.8690   -4.5420   -4.6260 hn        1 MOL      0.275236
     41 N4         -3.5760   -2.8760   -0.0820 n         1 MOL     -0.510809
     42 C13        -3.5290   -1.5870   -0.8870 c3        1 MOL      0.143456
     43 C14        -3.7030   -0.3330   -0.0210 c         1 MOL      0.232879
     44 O6         -3.8140   -0.4970    1.2500 o         1 MOL     -0.447273
     45 C15        -2.2870   -1.5880   -1.7070 c3        1 MOL     -0.272079
     46 C16        -1.0090   -1.6930   -0.8400 c         1 MOL      0.698730
     47 O7         -0.8400   -1.1490    0.2320 o         1 MOL     -0.629376
     48 O8         -0.1930   -2.5400   -1.2980 o         1 MOL     -0.629376
     49 H21        -2.8040   -2.9600    0.5690 hn        1 MOL      0.380800
     50 H22        -4.3190   -1.4710   -1.6240 h1        1 MOL      0.116761
     51 H23        -2.2340   -0.6550   -2.2840 hc        1 MOL      0.067934
     52 H24        -2.3260   -2.3900   -2.4320 hc        1 MOL      0.067934
     53 N5         -3.7910    0.8280   -0.6330 n         1 MOL     -0.300369
     54 C17        -3.9940    2.2030   -0.0520 c3        1 MOL     -0.019377
     55 C18        -2.8030    2.7440    0.6990 c         1 MOL      0.681277
     56 O9         -1.7250    2.2080    0.6500 o         1 MOL     -0.737352
     57 H25        -3.8120    0.7820   -1.6430 hn        1 MOL      0.254611
     58 H26        -4.8430    2.1220    0.6260 h1        1 MOL      0.053996
     59 H27        -4.2950    2.8820   -0.8460 h1        1 MOL      0.053996
     60 N6         -3.0320    3.9080    1.2160 n         1 MOL     -0.474416
     61 C19        -2.0640    4.7480    1.9420 c3        1 MOL      0.457006
     62 C20        -2.3380    6.2630    1.7490 c         1 MOL      0.366941
     63 O10        -3.4090    6.6980    1.3890 o         1 MOL     -0.515445
     64 C21        -1.9950    4.3230    3.4510 c3        1 MOL     -0.410140
     65 C22        -1.2670    2.9800    3.6260 c         1 MOL      0.787831
     66 O11        -0.2030    2.6810    3.0310 o         1 MOL     -0.678869
     67 O12        -1.8540    2.1740    4.4200 o         1 MOL     -0.678869
     68 H28        -3.9580    4.3020    1.1070 hn        1 MOL      0.246926
     69 H29        -1.0840    4.4880    1.5530 h1        1 MOL     -0.043289
     70 H30        -2.9960    4.0820    3.7930 hc        1 MOL      0.084494
     71 H31        -1.4530    5.0710    4.0290 hc        1 MOL      0.084494
     72 N7         -1.3070    7.1140    1.9100 n         1 MOL     -0.343175
     73 C23         0.1530    7.0210    2.0520 c3        1 MOL     -0.259996
     74 C24         0.7470    6.6250    0.6700 c         1 MOL      0.606754
     75 O13         0.8120    7.4110   -0.3010 o         1 MOL     -0.541135
     76 H32        -1.6060    8.0760    1.9520 hn        1 MOL      0.295047
     77 H33         0.4490    6.3580    2.8620 h1        1 MOL      0.137435
     78 H34         0.5120    8.0380    2.2250 h1        1 MOL      0.137435
     79 N8          1.5500    5.5150    0.7240 n         1 MOL     -0.473859
     80 C25         2.4050    4.9430   -0.3710 c3        1 MOL      0.026068
     81 C26         1.7510    3.6780   -0.9020 c         1 MOL      0.927789
     82 O14         1.1650    2.9410   -0.0530 o         1 MOL     -0.664938
     83 C27         3.8670    4.9270    0.0400 c3        1 MOL      0.252999
     84 C28         4.8540    4.3720   -1.0010 c3        1 MOL     -0.273100
     85 O15         4.0890    4.1030    1.1660 oh        1 MOL     -0.634602
     86 H35         1.7950    5.1860    1.6470 hn        1 MOL      0.255876
     87 H36         2.4070    5.6180   -1.2320 h1        1 MOL      0.043490
     88 H37         4.2430    5.9120    0.2990 h1        1 MOL      0.038394
     89 H38         4.5590    4.6490    1.7970 ho        1 MOL      0.417636
     90 H39         4.6990    4.9990   -1.8670 hc        1 MOL      0.073557
     91 H40         5.8730    4.5640   -0.6780 hc        1 MOL      0.073557
     92 H41         4.7800    3.2880   -1.1150 hc        1 MOL      0.073557
     93 N9          1.7280    3.5800   -2.2550 n         1 MOL     -0.848802
     94 C29         1.0170    2.5070   -2.9840 c3        1 MOL      0.189503
     95 C30         1.3820    1.0670   -2.5150 c         1 MOL      0.456289
     96 O16         0.9310    0.6400   -1.4110 o         1 MOL     -0.580282
     97 C31        -0.4580    2.8210   -2.8860 c3        1 MOL      0.175098
     98 C32        -0.7930    4.3260   -3.2350 c3        1 MOL     -0.030128
     99 C33        -1.1770    1.9210   -3.8890 c3        1 MOL     -0.659947
    100 C34        -2.2550    4.6940   -2.9790 c3        1 MOL     -0.019643
    101 H42         2.1640    4.3000   -2.8260 hn        1 MOL      0.374570
    102 H43         1.2450    2.5400   -4.0500 h1        1 MOL      0.032724
    103 H44        -0.7460    2.7380   -1.8390 hc        1 MOL      0.100226
    104 H45        -0.5540    4.5060   -4.2890 hc        1 MOL      0.005096
    105 H46        -0.1970    5.0050   -2.6370 hc        1 MOL      0.005096
    106 H47        -1.0400    2.2610   -4.9160 hc        1 MOL      0.161852
    107 H48        -1.0300    0.8530   -3.7180 hc        1 MOL      0.161852
    108 H49        -2.2290    2.1560   -3.6990 hc        1 MOL      0.161852
    109 H50        -2.9520    4.0590   -3.5250 hc        1 MOL      0.010898
    110 H51        -2.4830    4.5540   -1.9280 hc        1 MOL      0.010898
    111 H52        -2.5000    5.7400   -3.1900 hc        1 MOL      0.010898
    112 N10         2.1110    0.3460   -3.3210 n         1 MOL     -0.362278
    113 C35         2.3860   -1.1300   -3.0420 c3        1 MOL     -0.015961
    114 C36         3.8690   -1.6020   -3.2500 c         1 MOL      0.473929
    115 O17         4.1660   -2.8080   -3.3200 o         1 MOL     -0.530852
    116 C37         1.4780   -1.9630   -3.8790 c3        1 MOL      0.410424
    117 C38         1.7990   -1.8520   -5.3610 c3        1 MOL     -0.124076
    118 O18         0.1430   -1.7390   -3.6660 oh        1 MOL     -0.614743
    119 H53         2.6450    0.8270   -4.0230 hn        1 MOL      0.267552
    120 H54         2.1490   -1.3140   -2.0020 h1        1 MOL      0.049546
    121 H55         1.5710   -3.0300   -3.6580 h1        1 MOL      0.011911
    122 H56         0.0080   -2.0620   -2.7700 ho        1 MOL      0.350136
    123 H57         1.0660   -2.4190   -5.9390 hc        1 MOL      0.011867
    124 H58         1.9600   -0.8240   -5.6930 hc        1 MOL      0.011867
    125 H59         2.7760   -2.3190   -5.5280 hc        1 MOL      0.011867
    126 N11         4.7250   -0.5810   -3.3450 n         1 MOL     -0.313044
    127 C39         6.1980   -0.8300   -3.2240 c3        1 MOL     -0.006209
    128 C40         6.6080   -0.8970   -1.7600 c         1 MOL      0.444081
    129 O19         7.0670    0.0640   -1.1450 o         1 MOL     -0.493923
    130 C41         7.1290    0.2270   -3.9200 c3        1 MOL      0.419131
    131 C42         6.9400    0.1270   -5.4490 c3        1 MOL     -0.155288
    132 O20         6.7890    1.5440   -3.5390 oh        1 MOL     -0.633281
    133 H60         4.4320    0.3830   -3.3110 hn        1 MOL      0.255918
    134 H61         6.5090   -1.7890   -3.6440 h1        1 MOL      0.059860
    135 H62         8.2000    0.0910   -3.7640 h1        1 MOL     -0.011382
    136 H63         7.2790    1.7370   -2.7390 ho        1 MOL      0.377587
    137 H64         7.4590   -0.8020   -5.6870 hc        1 MOL      0.030336
    138 H65         5.9010    0.1070   -5.7650 hc        1 MOL      0.030336
    139 H66         7.4020    0.9740   -5.9480 hc        1 MOL      0.030336
    140 N12         6.4240   -2.1250   -1.2480 n         1 MOL     -0.716556
    141 C43         6.4060   -2.5580    0.1670 c3        1 MOL      0.346215
    142 C44         5.1630   -2.0450    0.9090 c         1 MOL      0.484188
    143 O21         4.5500   -1.1080    0.3850 o         1 MOL     -0.452664
    144 C45         7.7400   -2.1450    0.9110 c3        1 MOL     -0.608947
    145 C46         8.9520   -2.5940    0.2500 c3        1 MOL      0.342865
    146 C47        10.1880   -2.5270    1.1060 c3        1 MOL     -0.158422
    147 C48        11.4010   -2.9750    0.3480 c3        1 MOL      0.093892
    148 N13        12.6640   -2.7640    1.1450 n4        1 MOL     -0.135839
    149 H67         6.0070   -2.7650   -1.9100 hn        1 MOL      0.376529
    150 H68         6.4040   -3.6510    0.2390 h1        1 MOL      0.034729
    151 H69         7.6590   -2.5040    1.9380 hc        1 MOL      0.171933
    152 H70         7.8380   -1.0690    0.9870 hc        1 MOL      0.171933
    153 H71         9.1880   -2.0560   -0.6680 hc        1 MOL     -0.020594
    154 H72         8.9000   -3.6380   -0.0800 hc        1 MOL     -0.020594
    155 H73        10.0380   -3.1640    1.9760 hc        1 MOL      0.057558
    156 H74        10.1900   -1.4550    1.3450 hc        1 MOL      0.057558
    157 H75        11.5730   -2.4650   -0.5950 hx        1 MOL      0.046946
    158 H76        11.3270   -4.0450    0.1700 hx        1 MOL      0.046946
    159 H77        12.7650   -3.2670    2.0120 hn        1 MOL      0.196910
    160 H78        13.4680   -2.9520    0.5730 hn        1 MOL      0.196910
    161 H79        12.7050   -1.7870    1.4110 hn        1 MOL      0.196910
    162 N14         4.6830   -2.6650    1.9960 n         1 MOL     -0.491230
    163 C49         3.3980   -2.4190    2.7770 c3        1 MOL      0.118800
    164 C50         2.0520   -2.3200    2.0420 c         1 MOL      0.225583
    165 O22         1.2490   -1.4620    2.3350 o         1 MOL     -0.496697
    166 C51         3.4310   -3.3390    4.0190 c3        1 MOL      0.136388
    167 C52         4.6610   -3.3040    4.9130 c3        1 MOL     -0.349459
    168 C53         4.5840   -4.3640    5.9750 c         1 MOL      0.656523
    169 O23         4.1190   -5.4700    5.6310 o         1 MOL     -0.647647
    170 O24         4.7180   -4.0020    7.1670 o         1 MOL     -0.647647
    171 H80         5.2720   -3.3480    2.4590 hn        1 MOL      0.276401
    172 H81         3.5940   -1.4400    3.2090 h1        1 MOL      0.007384
    173 H82         3.2010   -4.3540    3.7100 hc        1 MOL      0.063737
    174 H83         2.6260   -3.0250    4.6820 hc        1 MOL      0.063737
    175 H84         4.5930   -2.3230    5.3890 hc        1 MOL      0.062678
    176 H85         5.6410   -3.4220    4.4540 hc        1 MOL      0.062678
    177 N15         1.6150   -3.1850    1.0390 n         1 MOL     -0.091982
    178 C54         2.0970   -4.5150    0.7220 c3        1 MOL     -0.061582
    179 H86         3.1840   -4.5000    0.6490 h1        1 MOL      0.031553
    180 H87         1.7950   -5.2070    1.5070 h1        1 MOL      0.031553
    181 H88         1.6740   -4.8370   -0.2300 h1        1 MOL      0.031553
    182 H89         0.8720   -2.8310    0.4500 hn        1 MOL      0.189875
    183 Ca1         0.5860    0.7420    1.2600 Ca        1 MOL      1.864629
    184 O25         3.2600    1.0880    0.6310 oh        1 MOL     -0.891290
    185 H90         3.7860    0.3380    0.3580 ho        1 MOL      0.423936
    186 H91         3.8800    1.8200    0.6450 ho        1 MOL      0.423936
    187 O26        -1.4510    0.0180    2.8470 oh        1 MOL     -0.891290
    188 H92        -1.7660    0.7210    3.4140 ho        1 MOL      0.423936
    189 H93        -2.2350   -0.3000    2.3900 ho        1 MOL      0.423936
    190 O27         2.2060    1.0300    3.4050 oh        1 MOL     -0.891290
    191 H94         2.0340    0.9640    4.3410 ho        1 MOL      0.423936
    192 H95         3.1350    0.8250    3.3120 ho        1 MOL      0.423936
@<TRIPOS>BOND
     1    1    2 1   
     2    1    4 1   
     3    1    5 1   
     4    1    6 1   
     5    2    3 2   
     6    2    7 1   
     7    7    8 1   
     8    7   15 1   
     9    8    9 1   
    10    8   11 1   
    11    8   16 1   
    12    9   10 2   
    13    9   19 1   
    14   11   12 1   
    15   11   17 1   
    16   11   18 1   
    17   12   13 1   
    18   12   14 1   
    19   19   20 1   
    20   19   28 1   
    21   20   21 1   
    22   20   23 1   
    23   20   29 1   
    24   21   22 2   
    25   21   41 1   
    26   23   24 1   
    27   23   30 1   
    28   23   31 1   
    29   24   25 1   
    30   24   32 1   
    31   24   33 1   
    32   25   26 1   
    33   25   34 1   
    34   25   35 1   
    35   26   27 1   
    36   26   36 1   
    37   26   37 1   
    38   27   38 1   
    39   27   39 1   
    40   27   40 1   
    41   41   42 1   
    42   41   49 1   
    43   42   43 1   
    44   42   45 1   
    45   42   50 1   
    46   43   44 2   
    47   43   53 1   
    48   45   46 1   
    49   45   51 1   
    50   45   52 1   
    51   46   47 1   
    52   46   48 1   
    53   53   54 1   
    54   53   57 1   
    55   54   55 1   
    56   54   58 1   
    57   54   59 1   
    58   55   56 2   
    59   55   60 1   
    60   60   61 1   
    61   60   68 1   
    62   61   62 1   
    63   61   64 1   
    64   61   69 1   
    65   62   63 2   
    66   62   72 1   
    67   64   65 1   
    68   64   70 1   
    69   64   71 1   
    70   65   66 1   
    71   65   67 1   
    72   72   73 1   
    73   72   76 1   
    74   73   74 1   
    75   73   77 1   
    76   73   78 1   
    77   74   75 2   
    78   74   79 1   
    79   79   80 1   
    80   79   86 1   
    81   80   81 1   
    82   80   83 1   
    83   80   87 1   
    84   81   82 2   
    85   81   93 1   
    86   83   84 1   
    87   83   85 1   
    88   83   88 1   
    89   84   90 1   
    90   84   91 1   
    91   84   92 1   
    92   85   89 1   
    93   93   94 1   
    94   93  101 1   
    95   94   95 1   
    96   94   97 1   
    97   94  102 1   
    98   95   96 2   
    99   95  112 1   
   100   97   98 1   
   101   97   99 1   
   102   97  103 1   
   103   98  100 1   
   104   98  104 1   
   105   98  105 1   
   106   99  106 1   
   107   99  107 1   
   108   99  108 1   
   109  100  109 1   
   110  100  110 1   
   111  100  111 1   
   112  112  113 1   
   113  112  119 1   
   114  113  114 1   
   115  113  116 1   
   116  113  120 1   
   117  114  115 2   
   118  114  126 1   
   119  116  117 1   
   120  116  118 1   
   121  116  121 1   
   122  117  123 1   
   123  117  124 1   
   124  117  125 1   
   125  118  122 1   
   126  126  127 1   
   127  126  133 1   
   128  127  128 1   
   129  127  130 1   
   130  127  134 1   
   131  128  129 2   
   132  128  140 1   
   133  130  131 1   
   134  130  132 1   
   135  130  135 1   
   136  131  137 1   
   137  131  138 1   
   138  131  139 1   
   139  132  136 1   
   140  140  141 1   
   141  140  149 1   
   142  141  142 1   
   143  141  144 1   
   144  141  150 1   
   145  142  143 2   
   146  142  162 1   
   147  144  145 1   
   148  144  151 1   
   149  144  152 1   
   150  145  146 1   
   151  145  153 1   
   152  145  154 1   
   153  146  147 1   
   154  146  155 1   
   155  146  156 1   
   156  147  148 1   
   157  147  157 1   
   158  147  158 1   
   159  148  159 1   
   160  148  160 1   
   161  148  161 1   
   162  162  163 1   
   163  162  171 1   
   164  163  164 1   
   165  163  166 1   
   166  163  172 1   
   167  164  165 2   
   168  164  177 1   
   169  166  167 1   
   170  166  173 1   
   171  166  174 1   
   172  167  168 1   
   173  167  175 1   
   174  167  176 1   
   175  168  169 1   
   176  168  170 1   
   177  177  178 1   
   178  177  182 1   
   179  178  179 1   
   180  178  180 1   
   181  178  181 1   
   182  184  185 1   
   183  184  186 1   
   184  187  188 1   
   185  187  189 1   
   186  190  191 1   
   187  190  192 1   
@<TRIPOS>SUBSTRUCTURE
     1 MOL         1 TEMP              0 ****  ****    0 ROOT
