@<TRIPOS>MOLECULE
MOL
  189   185     1     0     0
SMALL
resp


@<TRIPOS>ATOM
      1 C1          4.5030    4.9880   -3.5120 c3        1 MOL     -0.471315
      2 C2          5.1770    4.1080   -2.4480 c         1 MOL      0.777261
      3 O1          4.4340    3.6780   -1.5270 o         1 MOL     -0.623186
      4 H1          3.6290    4.4710   -3.9100 hc        1 MOL      0.128580
      5 H2          4.1920    5.9310   -3.0620 hc        1 MOL      0.128580
      6 H3          5.2070    5.1850   -4.3200 hc        1 MOL      0.128580
      7 N1          6.4720    3.8180   -2.4400 n         1 MOL     -0.591982
      8 C3          7.2290    2.7390   -1.6310 c3        1 MOL      0.151465
      9 C4          6.3460    1.4740   -1.5070 c         1 MOL      0.330960
     10 O2          5.7370    1.2200   -0.4310 o         1 MOL     -0.504160
     11 C5          7.8590    3.2280   -0.2870 c3        1 MOL      0.099746
     12 C6          7.0660    4.2720    0.4710 c         1 MOL      0.520372
     13 O3          6.0490    3.8210    1.0030 o         1 MOL     -0.654810
     14 O4          7.4680    5.4260    0.6040 o         1 MOL     -0.654810
     15 H4          7.0790    4.3130   -3.0820 hn        1 MOL      0.310302
     16 H5          8.1490    2.4900   -2.1530 h1        1 MOL      0.030770
     17 H6          8.8120    3.7040   -0.5510 hc        1 MOL     -0.032728
     18 H7          8.1540    2.4260    0.3950 hc        1 MOL     -0.032728
     19 N2          6.1840    0.6740   -2.5680 n         1 MOL     -0.442726
     20 C7          5.4300   -0.5460   -2.7050 c3        1 MOL      0.140695
     21 C8          5.8390   -1.7550   -1.8200 c         1 MOL      0.289893
     22 O5          5.8820   -2.8930   -2.2970 o         1 MOL     -0.528611
     23 C9          3.9650   -0.2500   -2.7320 c3        1 MOL     -0.010298
     24 C10         2.9580   -1.4600   -2.7230 c3        1 MOL     -0.065327
     25 C11         3.6830    0.7120   -3.9010 c3        1 MOL     -0.209503
     26 C12         2.9170   -2.2990   -3.9880 c3        1 MOL     -0.453450
     27 H8          6.6830    0.9870   -3.3920 hn        1 MOL      0.271225
     28 H9          5.6300   -0.9490   -3.7050 h1        1 MOL      0.078020
     29 H10         3.6810    0.3140   -1.8450 hc        1 MOL      0.018927
     30 H11         1.9700   -1.0740   -2.4940 hc        1 MOL      0.142637
     31 H12         3.3200   -2.1900   -2.0000 hc        1 MOL      0.142637
     32 H13         2.6530    0.7470   -4.2820 hc        1 MOL      0.040336
     33 H14         3.9990    1.7330   -3.7270 hc        1 MOL      0.040336
     34 H15         4.1170    0.3130   -4.8150 hc        1 MOL      0.040336
     35 H16         2.3870   -3.2470   -3.8870 hc        1 MOL      0.112632
     36 H17         2.3720   -1.6710   -4.7010 hc        1 MOL      0.112632
     37 H18         3.9270   -2.5340   -4.3190 hc        1 MOL      0.112632
     38 N3          6.3720   -1.5800   -0.5790 n         1 MOL     -0.114627
     39 C13         7.3830   -2.4430    0.1090 c3        1 MOL      0.107488
     40 C14         6.8660   -3.8950    0.4090 c         1 MOL      0.414683
     41 O6          7.6810   -4.8110    0.4230 o         1 MOL     -0.539759
     42 C15         7.7150   -1.8420    1.4750 c3        1 MOL     -0.341435
     43 C16         8.6920   -2.7230    2.1870 c         1 MOL      0.735704
     44 O7          8.4270   -3.0880    3.3200 o         1 MOL     -0.689371
     45 O8          9.7340   -3.0790    1.6150 o         1 MOL     -0.689371
     46 H19         6.3030   -0.6060   -0.3230 hn        1 MOL      0.214336
     47 H20         8.3440   -2.4840   -0.4200 h1        1 MOL      0.014605
     48 H21         6.7890   -1.7480    2.0440 hc        1 MOL      0.073592
     49 H22         8.1900   -0.8620    1.3410 hc        1 MOL      0.073592
     50 N4          5.6270   -4.2640    0.6310 n         1 MOL     -0.180425
     51 C17         4.4680   -3.4140    0.6670 c3        1 MOL      0.012601
     52 C18         3.3440   -4.1070    1.4630 c         1 MOL      0.469953
     53 O9          3.2330   -5.3250    1.4310 o         1 MOL     -0.577783
     54 H23         5.4570   -5.2610    0.6610 hn        1 MOL      0.207570
     55 H24         4.1240   -3.1800   -0.3430 h1        1 MOL      0.018440
     56 H25         4.7410   -2.5040    1.2180 h1        1 MOL      0.018440
     57 N5          2.6530   -3.4010    2.2770 n         1 MOL     -0.186441
     58 C19         2.6330   -1.8860    2.6770 c3        1 MOL      0.170127
     59 C20         2.6110   -1.0210    1.4700 c         1 MOL      0.492647
     60 O10         3.4240   -0.1570    1.1500 o         1 MOL     -0.693077
     61 C21         3.7490   -1.5710    3.7130 c3        1 MOL     -0.451796
     62 C22         3.6320   -2.3660    5.0460 c         1 MOL      0.692027
     63 O11         2.6160   -3.0480    5.2250 o         1 MOL     -0.700455
     64 O12         4.5670   -2.3170    5.9010 o         1 MOL     -0.700455
     65 H26         1.9790   -3.9330    2.8010 hn        1 MOL      0.177925
     66 H27         1.7220   -1.6400    3.2300 h1        1 MOL      0.044339
     67 H28         3.6390   -0.5030    3.9030 hc        1 MOL      0.151056
     68 H29         4.6970   -1.8840    3.2930 hc        1 MOL      0.151056
     69 N6          1.6050   -1.0980    0.6030 n         1 MOL     -0.370676
     70 C23         0.2980   -1.7280    0.7760 c3        1 MOL      0.016583
     71 C24         0.0120   -2.8240   -0.2940 c         1 MOL      0.339119
     72 O13         0.7690   -3.2840   -1.1360 o         1 MOL     -0.451238
     73 H30         1.6390   -0.4850   -0.1980 hn        1 MOL      0.303808
     74 H31        -0.4920   -1.0150    0.5770 h1        1 MOL      0.021476
     75 H32         0.1290   -2.1180    1.7880 h1        1 MOL      0.021476
     76 N7         -1.2500   -3.2800   -0.1110 n         1 MOL     -0.357944
     77 C25        -1.7730   -4.2960   -1.0120 c3        1 MOL     -0.005211
     78 C26        -2.1190   -3.8170   -2.4220 c         1 MOL      0.341284
     79 O14        -2.0860   -4.6440   -3.3570 o         1 MOL     -0.504080
     80 C27        -2.9720   -5.0210   -0.4010 c3        1 MOL      0.137316
     81 C28        -2.7280   -5.4420    0.9750 c3        1 MOL     -0.234229
     82 C29        -3.8240   -6.4070    1.4690 c         1 MOL      0.632297
     83 N8         -4.8490   -5.8810    2.1260 n         1 MOL     -0.739031
     84 O15        -3.6660   -7.6170    1.3610 o         1 MOL     -0.541572
     85 H33        -1.7870   -2.8580    0.6350 hn        1 MOL      0.283074
     86 H34        -1.0090   -5.0630   -1.1390 h1        1 MOL      0.143405
     87 H35        -3.0880   -5.9740   -0.9170 hc        1 MOL     -0.008493
     88 H36        -3.8770   -4.4210   -0.5340 hc        1 MOL     -0.008493
     89 H37        -2.7110   -4.5330    1.5820 hc        1 MOL      0.066890
     90 H38        -1.7070   -5.8120    1.0650 hc        1 MOL      0.066890
     91 H39        -4.9840   -4.9040    2.3140 hn        1 MOL      0.340063
     92 H40        -5.5150   -6.4750    2.5990 hn        1 MOL      0.340063
     93 N9         -2.4320   -2.5050   -2.6090 n         1 MOL     -0.156207
     94 C30        -2.8540   -1.9630   -3.9290 c3        1 MOL     -0.176090
     95 C31        -4.2070   -1.2710   -3.8550 c         1 MOL      0.598078
     96 O16        -4.7450   -0.8730   -4.8430 o         1 MOL     -0.562353
     97 C32        -1.7660   -1.0950   -4.6450 c3        1 MOL      0.198729
     98 C33        -0.3950   -1.8650   -4.8800 c3        1 MOL     -0.172230
     99 C34        -1.5170    0.3410   -4.1280 c3        1 MOL     -0.172230
    100 H41        -2.3600   -1.7910   -1.8900 hn        1 MOL      0.220387
    101 H42        -3.0450   -2.8620   -4.5070 h1        1 MOL      0.115026
    102 H43        -2.2950   -0.9720   -5.5950 hc        1 MOL     -0.024953
    103 H44         0.2040   -1.9380   -3.9690 hc        1 MOL      0.044613
    104 H45        -0.5100   -2.8290   -5.3710 hc        1 MOL      0.044613
    105 H46         0.1350   -1.2630   -5.6040 hc        1 MOL      0.044613
    106 H47        -1.1390    0.9440   -4.9510 hc        1 MOL      0.044613
    107 H48        -2.3820    0.8550   -3.7020 hc        1 MOL      0.044613
    108 H49        -0.6680    0.2780   -3.4470 hc        1 MOL      0.044613
    109 N10        -4.8590   -1.2060   -2.6870 n         1 MOL     -0.411144
    110 C35        -6.2520   -0.8180   -2.6340 c3        1 MOL      0.235001
    111 C36        -6.4120    0.4410   -1.7120 c         1 MOL      0.492072
    112 O17        -7.0410    1.4270   -2.1070 o         1 MOL     -0.550463
    113 C37        -7.0920   -1.9300   -2.0840 c3        1 MOL     -0.171357
    114 C38        -6.6280   -2.7120   -0.8580 c         1 MOL      0.457169
    115 N11        -7.3360   -3.6230   -0.2490 n         1 MOL     -0.602451
    116 O18        -5.4710   -2.5770   -0.4320 o         1 MOL     -0.455222
    117 H50        -4.3930   -1.5620   -1.8660 hn        1 MOL      0.133052
    118 H51        -6.5900   -0.5240   -3.6240 h1        1 MOL      0.034501
    119 H52        -7.3000   -2.6260   -2.9040 hc        1 MOL      0.057351
    120 H53        -8.0520   -1.4720   -1.8390 hc        1 MOL      0.057351
    121 H54        -8.2610   -3.7160   -0.6430 hn        1 MOL      0.312168
    122 H55        -6.9970   -4.2010    0.5030 hn        1 MOL      0.312168
    123 N12        -5.8770    0.3700   -0.4820 n         1 MOL     -0.421380
    124 C39        -6.1450    1.2390    0.6750 c3        1 MOL     -0.068751
    125 C40        -4.9480    1.9800    1.1200 c         1 MOL      0.699787
    126 O19        -3.8450    1.4430    1.1240 o         1 MOL     -0.568212
    127 C41        -6.7650    0.5430    1.8230 c3        1 MOL      0.054509
    128 C42        -8.0880   -0.1270    1.5670 ca        1 MOL      0.012301
    129 C43        -8.5230   -1.1020    2.3700 ca        1 MOL     -0.125300
    130 C44        -8.9830    0.2980    0.5000 ca        1 MOL     -0.125300
    131 C45        -9.6670   -1.8460    2.0940 ca        1 MOL     -0.253603
    132 C46       -10.1740   -0.4240    0.1650 ca        1 MOL     -0.253603
    133 C47       -10.4870   -1.5590    0.9640 ca        1 MOL      0.262969
    134 O20       -11.5860   -2.3230    0.8420 oh        1 MOL     -0.490308
    135 H56        -5.4070   -0.4900   -0.2080 hn        1 MOL      0.242266
    136 H57        -6.8590    2.0020    0.3500 h1        1 MOL      0.090995
    137 H58        -6.8310    1.2190    2.6660 hc        1 MOL      0.021421
    138 H59        -6.1000   -0.2540    2.1710 hc        1 MOL      0.021421
    139 H60        -7.8570   -1.5500    3.0940 ha        1 MOL      0.113211
    140 H61        -8.7440    1.1440   -0.1280 ha        1 MOL      0.113211
    141 H62        -9.8790   -2.6440    2.7900 ha        1 MOL      0.132291
    142 H63       -10.7210   -0.2430   -0.7510 ha        1 MOL      0.132291
    143 H64       -12.0860   -1.8640    0.1610 ho        1 MOL      0.363913
    144 N13        -5.1220    3.2140    1.5480 n         1 MOL     -0.497162
    145 C48        -4.1250    4.1740    2.0550 c3        1 MOL      0.040382
    146 C49        -2.7430    4.2960    1.3170 c         1 MOL      0.507908
    147 O21        -1.7690    4.6120    1.9660 o         1 MOL     -0.487460
    148 C50        -3.8820    3.9520    3.6140 c3        1 MOL      0.030574
    149 C51        -5.2200    3.8450    4.4290 c3        1 MOL     -0.333865
    150 C52        -6.1100    5.0990    4.3200 c         1 MOL      0.730180
    151 O22        -7.2470    4.9830    3.8330 o         1 MOL     -0.732227
    152 O23        -5.7220    6.2100    4.6820 o         1 MOL     -0.732227
    153 H65        -6.0650    3.5700    1.4750 hn        1 MOL      0.244357
    154 H66        -4.6620    5.1240    1.9300 h1        1 MOL      0.107252
    155 H67        -3.2820    4.7870    3.9660 hc        1 MOL      0.029602
    156 H68        -3.3880    2.9990    3.7760 hc        1 MOL      0.029602
    157 H69        -4.9950    3.5200    5.4450 hc        1 MOL      0.063214
    158 H70        -5.7280    2.9310    4.1340 hc        1 MOL      0.063214
    159 N14        -2.7190    4.0550    0.0120 n         1 MOL     -0.561501
    160 C53        -1.4980    4.1400   -0.8360 c3        1 MOL      0.039480
    161 C54        -1.6530    5.1810   -2.0010 c         1 MOL      0.463253
    162 O24        -0.6520    5.7120   -2.5040 o         1 MOL     -0.548697
    163 C55        -1.1550    2.7850   -1.3750 c3        1 MOL     -0.114428
    164 C56        -0.6100    1.7440   -0.4140 c3        1 MOL     -0.063373
    165 C57         0.9060    1.9260    0.0390 c         1 MOL      0.833046
    166 O25         1.8190    1.7050   -0.7670 o         1 MOL     -0.768055
    167 O26         1.2300    2.1990    1.1700 o         1 MOL     -0.768055
    168 H71        -3.5500    3.8190   -0.5250 hn        1 MOL      0.291143
    169 H72        -0.6270    4.4660   -0.2580 h1        1 MOL      0.140170
    170 H73        -0.4360    2.8690   -2.1880 hc        1 MOL      0.034646
    171 H74        -2.0360    2.3260   -1.8260 hc        1 MOL      0.034646
    172 H75        -0.6640    0.7160   -0.7870 hc        1 MOL      0.014875
    173 H76        -1.2460    1.8320    0.4680 hc        1 MOL      0.014875
    174 N15        -2.8090    5.5570   -2.4360 n         1 MOL     -0.235468
    175 C58        -3.1530    6.6240   -3.4020 c3        1 MOL     -0.187728
    176 H77        -4.1040    6.3870   -3.8800 h1        1 MOL      0.096492
    177 H78        -3.2380    7.5760   -2.8770 h1        1 MOL      0.096492
    178 H79        -2.3730    6.6940   -4.1590 h1        1 MOL      0.096492
    179 H80        -3.6010    5.1460   -1.9490 hn        1 MOL      0.221028
    180 Ca1         3.7950    2.5420    0.9430 Ca        1 MOL      1.817954
    181 O27         6.0380    1.6510    2.5270 oh        1 MOL     -0.913600
    182 H81         6.6660    1.6950    3.2570 ho        1 MOL      0.443021
    183 H82         6.4220    2.2210    1.8590 ho        1 MOL      0.443021
    184 O28         3.7010    3.0360    3.6140 oh        1 MOL     -0.913600
    185 H83         2.8590    3.4200    3.8640 ho        1 MOL      0.443021
    186 H84         3.9760    2.5500    4.3850 ho        1 MOL      0.443021
    187 O29         2.6000    4.8720    1.3480 oh        1 MOL     -0.913600
    188 H85         2.2960    5.5040    0.7050 ho        1 MOL      0.443021
    189 H86         2.3250    5.2320    2.1890 ho        1 MOL      0.443021
@<TRIPOS>BOND
     1    1    2 1   
     2    1    4 1   
     3    1    5 1   
     4    1    6 1   
     5    2    3 2   
     6    2    7 1   
     7    7    8 1   
     8    7   15 1   
     9    8    9 1   
    10    8   11 1   
    11    8   16 1   
    12    9   10 2   
    13    9   19 1   
    14   11   12 1   
    15   11   17 1   
    16   11   18 1   
    17   12   13 1   
    18   12   14 1   
    19   19   20 1   
    20   19   27 1   
    21   20   21 1   
    22   20   23 1   
    23   20   28 1   
    24   21   22 2   
    25   21   38 1   
    26   23   24 1   
    27   23   25 1   
    28   23   29 1   
    29   24   26 1   
    30   24   30 1   
    31   24   31 1   
    32   25   32 1   
    33   25   33 1   
    34   25   34 1   
    35   26   35 1   
    36   26   36 1   
    37   26   37 1   
    38   38   39 1   
    39   38   46 1   
    40   39   40 1   
    41   39   42 1   
    42   39   47 1   
    43   40   41 2   
    44   40   50 1   
    45   42   43 1   
    46   42   48 1   
    47   42   49 1   
    48   43   44 1   
    49   43   45 1   
    50   50   51 1   
    51   50   54 1   
    52   51   52 1   
    53   51   55 1   
    54   51   56 1   
    55   52   53 2   
    56   52   57 1   
    57   57   58 1   
    58   57   65 1   
    59   58   59 1   
    60   58   61 1   
    61   58   66 1   
    62   59   60 2   
    63   59   69 1   
    64   61   62 1   
    65   61   67 1   
    66   61   68 1   
    67   62   63 1   
    68   62   64 1   
    69   69   70 1   
    70   69   73 1   
    71   70   71 1   
    72   70   74 1   
    73   70   75 1   
    74   71   72 2   
    75   71   76 1   
    76   76   77 1   
    77   76   85 1   
    78   77   78 1   
    79   77   80 1   
    80   77   86 1   
    81   78   79 2   
    82   78   93 1   
    83   80   81 1   
    84   80   87 1   
    85   80   88 1   
    86   81   82 1   
    87   81   89 1   
    88   81   90 1   
    89   82   83 1   
    90   82   84 2   
    91   83   91 1   
    92   83   92 1   
    93   93   94 1   
    94   93  100 1   
    95   94   95 1   
    96   94   97 1   
    97   94  101 1   
    98   95   96 2   
    99   95  109 1   
   100   97   98 1   
   101   97   99 1   
   102   97  102 1   
   103   98  103 1   
   104   98  104 1   
   105   98  105 1   
   106   99  106 1   
   107   99  107 1   
   108   99  108 1   
   109  109  110 1   
   110  109  117 1   
   111  110  111 1   
   112  110  113 1   
   113  110  118 1   
   114  111  112 2   
   115  111  123 1   
   116  113  114 1   
   117  113  119 1   
   118  113  120 1   
   119  114  115 1   
   120  114  116 2   
   121  115  121 1   
   122  115  122 1   
   123  123  124 1   
   124  123  135 1   
   125  124  125 1   
   126  124  127 1   
   127  124  136 1   
   128  125  126 2   
   129  125  144 1   
   130  127  128 1   
   131  127  137 1   
   132  127  138 1   
   133  128  129 ar  
   134  128  130 ar  
   135  129  131 ar  
   136  129  139 1   
   137  130  132 ar  
   138  130  140 1   
   139  131  133 ar  
   140  131  141 1   
   141  132  133 ar  
   142  132  142 1   
   143  133  134 1   
   144  134  143 1   
   145  144  145 1   
   146  144  153 1   
   147  145  146 1   
   148  145  148 1   
   149  145  154 1   
   150  146  147 2   
   151  146  159 1   
   152  148  149 1   
   153  148  155 1   
   154  148  156 1   
   155  149  150 1   
   156  149  157 1   
   157  149  158 1   
   158  150  151 1   
   159  150  152 1   
   160  159  160 1   
   161  159  168 1   
   162  160  161 1   
   163  160  163 1   
   164  160  169 1   
   165  161  162 2   
   166  161  174 1   
   167  163  164 1   
   168  163  170 1   
   169  163  171 1   
   170  164  165 1   
   171  164  172 1   
   172  164  173 1   
   173  165  166 1   
   174  165  167 1   
   175  174  175 1   
   176  174  179 1   
   177  175  176 1   
   178  175  177 1   
   179  175  178 1   
   180  181  182 1   
   181  181  183 1   
   182  184  185 1   
   183  184  186 1   
   184  187  188 1   
   185  187  189 1   
@<TRIPOS>SUBSTRUCTURE
     1 MOL         1 TEMP              0 ****  ****    0 ROOT
