@<TRIPOS>MOLECULE
MOL
  175   173     1     0     0
SMALL
resp


@<TRIPOS>ATOM
      1 C1         -7.2670    7.5580    2.1600 c3        1 MOL     -0.343932
      2 C2         -7.8600    6.8380    0.9990 c         1 MOL      0.732945
      3 O1         -7.9980    7.4720   -0.0640 o         1 MOL     -0.606106
      4 H1         -8.0620    7.8860    2.8290 hc        1 MOL      0.077467
      5 H2         -6.5940    6.8890    2.6970 hc        1 MOL      0.077467
      6 H3         -6.7110    8.4250    1.8040 hc        1 MOL      0.077467
      7 N1         -8.2980    5.5810    1.1420 n         1 MOL     -0.557729
      8 C3         -9.2940    4.7970    0.2920 c3        1 MOL      0.172070
      9 C4         -8.5760    3.6650   -0.4690 c         1 MOL      0.462833
     10 O2         -9.2980    2.8420   -1.0130 o         1 MOL     -0.530488
     11 C5        -10.5730    4.4640    1.1440 c3        1 MOL     -0.196136
     12 C6        -11.6890    3.8260    0.2750 c         1 MOL      0.739174
     13 O3        -12.0580    2.6430    0.5500 o         1 MOL     -0.737540
     14 O4        -12.2870    4.6340   -0.4750 o         1 MOL     -0.737540
     15 H4         -8.1780    5.2330    2.0840 hn        1 MOL      0.264898
     16 H5         -9.5830    5.5120   -0.4850 h1        1 MOL      0.065651
     17 H6        -10.9800    5.3790    1.5680 hc        1 MOL      0.017429
     18 H7        -10.3520    3.8180    1.9940 hc        1 MOL      0.017429
     19 N2         -7.3050    3.7330   -0.5510 n         1 MOL     -0.420819
     20 C7         -6.4250    2.8240   -1.3010 c3        1 MOL      0.404369
     21 C8         -5.3560    2.2850   -0.2550 c         1 MOL      0.453187
     22 O5         -4.8380    3.1310    0.4870 o         1 MOL     -0.550719
     23 C9         -5.7050    3.6310   -2.4070 c3        1 MOL     -0.337242
     24 H8         -6.8790    4.4790   -0.0120 hn        1 MOL      0.198468
     25 H9         -7.0540    2.0560   -1.7570 h1        1 MOL     -0.024885
     26 H10        -5.0110    2.9690   -2.9350 hc        1 MOL      0.089609
     27 H11        -6.4900    3.9940   -3.0650 hc        1 MOL      0.089609
     28 H12        -5.1730    4.4900   -2.0080 hc        1 MOL      0.089609
     29 N3         -5.0430    1.0440   -0.2020 n         1 MOL     -0.471636
     30 C10        -5.4600    0.0000   -1.1820 c3        1 MOL      0.000777
     31 C11        -5.5430   -1.3680   -0.5080 c         1 MOL      0.470967
     32 O6         -4.5810   -1.7200    0.1970 o         1 MOL     -0.473440
     33 C12        -4.3930   -0.0850   -2.3280 c3        1 MOL     -0.162316
     34 C13        -2.9760   -0.4520   -1.8880 c         1 MOL      0.830007
     35 O7         -2.4330    0.2100   -0.9680 o         1 MOL     -0.764711
     36 O8         -2.3230   -1.3950   -2.4240 o         1 MOL     -0.764711
     37 H13        -4.3070    0.7320    0.4130 hn        1 MOL      0.344805
     38 H14        -6.4700    0.2550   -1.5220 h1        1 MOL      0.070255
     39 H15        -4.3220    0.8570   -2.8740 hc        1 MOL      0.029650
     40 H16        -4.7030   -0.7950   -3.0940 hc        1 MOL      0.029650
     41 N4         -6.6800   -2.0930   -0.6510 n         1 MOL     -0.452617
     42 C14        -6.6230   -3.5410   -0.3400 c3        1 MOL      0.088144
     43 C15        -6.4260   -4.4380   -1.6080 c         1 MOL      0.487850
     44 O9         -7.4140   -4.7400   -2.3010 o         1 MOL     -0.567831
     45 H17        -7.3660   -1.6980   -1.2750 hn        1 MOL      0.333663
     46 H18        -7.4810   -3.9430    0.1850 h1        1 MOL      0.042223
     47 H19        -5.7940   -3.7790    0.3230 h1        1 MOL      0.042223
     48 N5         -5.2560   -4.8870   -1.9910 n         1 MOL     -0.489370
     49 C16        -3.9790   -4.5560   -1.4460 c3        1 MOL      0.230272
     50 C17        -3.6730   -5.2150   -0.0470 c         1 MOL      0.490821
     51 O10        -3.7330   -6.4400    0.0590 o         1 MOL     -0.562287
     52 C18        -2.8980   -4.7890   -2.5450 c3        1 MOL     -0.284097
     53 C19        -1.4850   -4.4110   -2.0070 c         1 MOL      0.619646
     54 N6         -0.4240   -4.7540   -2.6390 n         1 MOL     -0.512220
     55 O11        -1.4060   -3.7470   -0.9640 o         1 MOL     -0.770194
     56 H20        -5.3430   -5.4570   -2.8270 hn        1 MOL      0.312616
     57 H21        -3.8920   -3.4780   -1.3110 h1        1 MOL      0.097990
     58 H22        -3.1440   -4.1550   -3.4000 hc        1 MOL      0.070718
     59 H23        -2.8360   -5.8660   -2.7250 hc        1 MOL      0.070718
     60 H24        -0.4990   -5.0710   -3.5900 hn        1 MOL      0.294086
     61 H25         0.3990   -4.2320   -2.3680 hn        1 MOL      0.294086
     62 N7         -3.4850   -4.4180    1.0040 n         1 MOL     -0.094442
     63 C20        -3.2890   -4.7800    2.3690 c3        1 MOL     -0.404816
     64 C21        -1.8190   -5.0020    2.7470 c         1 MOL      0.584164
     65 O12        -1.5810   -5.5000    3.8770 o         1 MOL     -0.583733
     66 H26        -3.4960   -3.4260    0.7970 hn        1 MOL      0.182705
     67 H27        -3.7460   -5.7330    2.6190 h1        1 MOL      0.148569
     68 H28        -3.6990   -3.9860    2.9980 h1        1 MOL      0.148569
     69 N8         -0.8260   -4.7240    1.8720 n         1 MOL     -0.275804
     70 C22         0.6170   -4.8870    2.2460 c3        1 MOL     -0.144620
     71 C23         1.3070   -3.5420    1.9630 c         1 MOL      0.358470
     72 O13         0.8920   -2.8100    1.0430 o         1 MOL     -0.453879
     73 C24         1.3050   -6.0600    1.4940 c3        1 MOL      0.382430
     74 C25         0.6560   -7.3650    1.9800 c3        1 MOL     -0.447493
     75 O14         1.0950   -6.0590    0.0470 oh        1 MOL     -0.612712
     76 H29        -1.0820   -4.2530    1.0120 hn        1 MOL      0.324121
     77 H30         0.6990   -5.1310    3.3090 h1        1 MOL      0.086831
     78 H31         2.3720   -6.0350    1.7040 h1        1 MOL     -0.015214
     79 H32         1.6760   -5.3960   -0.3190 ho        1 MOL      0.423399
     80 H33         1.2350   -8.2240    1.6460 hc        1 MOL      0.121239
     81 H34         0.5610   -7.4410    3.0590 hc        1 MOL      0.121239
     82 H35        -0.3640   -7.3890    1.5830 hc        1 MOL      0.121239
     83 N9          2.4280   -3.3220    2.6590 n         1 MOL     -0.236734
     84 C26         3.4040   -2.2100    2.4960 c3        1 MOL      0.021648
     85 C27         4.2570   -2.5980    1.2600 c         1 MOL      0.318159
     86 O15         5.1220   -3.4810    1.4470 o         1 MOL     -0.544125
     87 C28         4.1560   -2.0010    3.8510 c3        1 MOL      0.055839
     88 C29         5.4510   -1.1270    3.8180 c3        1 MOL      0.073427
     89 C30         3.1930   -1.4760    4.9340 c3        1 MOL     -0.462256
     90 C31         5.3890    0.2900    3.2520 c3        1 MOL     -0.289996
     91 H36         2.6620   -4.0240    3.3490 hn        1 MOL      0.254998
     92 H37         2.9160   -1.2600    2.2820 h1        1 MOL      0.075197
     93 H38         4.4660   -2.9990    4.1780 hc        1 MOL      0.009974
     94 H39         6.1690   -1.6750    3.2100 hc        1 MOL      0.005439
     95 H40         5.9450   -1.0370    4.7900 hc        1 MOL      0.005439
     96 H41         2.8080   -0.5130    4.5940 hc        1 MOL      0.126651
     97 H42         2.3460   -2.1650    4.9890 hc        1 MOL      0.126651
     98 H43         3.6240   -1.1940    5.8920 hc        1 MOL      0.126651
     99 H44         6.3930    0.6970    3.1970 hc        1 MOL      0.063426
    100 H45         5.0250    0.3320    2.2220 hc        1 MOL      0.063426
    101 H46         4.9240    0.8950    4.0270 hc        1 MOL      0.063426
    102 N10         4.0770   -1.9720    0.0910 n         1 MOL      0.001459
    103 C32         4.8110   -2.4660   -1.1230 c3        1 MOL     -0.046272
    104 C33         5.9510   -1.5560   -1.5940 c         1 MOL      0.608845
    105 O16         6.6240   -1.8200   -2.5790 o         1 MOL     -0.557781
    106 C34         3.8780   -2.6150   -2.3730 c3        1 MOL     -0.178235
    107 C35         2.5380   -3.2670   -2.0390 c         1 MOL      0.702735
    108 O17         2.4840   -4.4850   -1.8030 o         1 MOL     -0.695631
    109 O18         1.5260   -2.5300   -2.0770 o         1 MOL     -0.695631
    110 H47         3.3950   -1.2390   -0.0100 hn        1 MOL      0.095068
    111 H48         5.2680   -3.4390   -0.9390 h1        1 MOL      0.093485
    112 H49         4.4710   -3.1790   -3.0860 hc        1 MOL      0.052603
    113 H50         3.7140   -1.6730   -2.8860 hc        1 MOL      0.052603
    114 N11         6.0870   -0.4110   -0.9150 n         1 MOL     -0.751880
    115 C36         7.0140    0.6780   -1.3720 c3        1 MOL      0.514507
    116 C37         6.4860    2.0240   -0.6890 c         1 MOL      0.222342
    117 O19         6.3740    2.0250    0.5590 o         1 MOL     -0.476215
    118 C38         8.4970    0.3610   -1.1300 c3        1 MOL     -0.192345
    119 C39         9.4760    1.5310   -1.3750 ca        1 MOL      0.095473
    120 C40        10.1030    2.1320   -0.2740 ca        1 MOL     -0.215312
    121 C41         9.5030    2.2220   -2.6400 ca        1 MOL     -0.215312
    122 C42        10.7190    3.3870   -0.3880 ca        1 MOL     -0.041305
    123 C43        10.0940    3.5080   -2.6900 ca        1 MOL     -0.041305
    124 C44        10.7400    4.0900   -1.5530 ca        1 MOL     -0.167305
    125 H51         5.4440   -0.1750   -0.1630 hn        1 MOL      0.413314
    126 H52         6.8520    0.8560   -2.4350 h1        1 MOL     -0.058926
    127 H53         8.7870   -0.5230   -1.6890 hc        1 MOL      0.076880
    128 H54         8.4710    0.1750   -0.0570 hc        1 MOL      0.076880
    129 H55        10.0630    1.6170    0.6780 ha        1 MOL      0.138308
    130 H56         8.9820    1.8300   -3.5030 ha        1 MOL      0.138308
    131 H57        11.3280    3.7860    0.4110 ha        1 MOL      0.089192
    132 H58        10.1820    3.9790   -3.6580 ha        1 MOL      0.089192
    133 H59        11.3050    5.0130   -1.6580 ha        1 MOL      0.115517
    134 N12         6.1970    3.0700   -1.4940 n         1 MOL     -0.081742
    135 C45         6.0690    4.4700   -0.9420 c3        1 MOL      0.128592
    136 C46         4.9280    4.7780    0.0280 c         1 MOL      0.232265
    137 O20         4.8520    5.9310    0.4470 o         1 MOL     -0.484822
    138 C47         5.8510    5.3820   -2.1650 c3        1 MOL     -0.346463
    139 C48         6.4460    4.5490   -3.3060 c3        1 MOL      0.158619
    140 C49         6.1620    3.1460   -2.9710 c3        1 MOL     -0.278131
    141 H60         7.0440    4.7390   -0.5400 h1        1 MOL      0.083567
    142 H61         4.7940    5.5560   -2.3780 hc        1 MOL      0.131648
    143 H62         6.4000    6.3260   -2.1880 hc        1 MOL      0.131648
    144 H63         5.9990    4.6980   -4.2850 hc        1 MOL     -0.003423
    145 H64         7.5130    4.6400   -3.4590 hc        1 MOL     -0.003423
    146 H65         5.1230    2.9550   -3.2560 h1        1 MOL      0.123886
    147 H66         6.9570    2.4960   -3.3380 h1        1 MOL      0.123886
    148 N13         4.0080    3.8480    0.3260 n         1 MOL      0.017195
    149 C50         2.8130    4.1370    1.1110 c3        1 MOL     -0.354685
    150 C51         2.9780    4.5760    2.5410 c         1 MOL      0.520066
    151 O21         2.0430    5.1840    3.1440 o         1 MOL     -0.525153
    152 C52         1.7350    3.0440    1.0290 c3        1 MOL     -0.228491
    153 C53         2.2710    1.7150    1.4950 c3        1 MOL      0.042995
    154 C54         1.4470    0.5890    0.8570 c         1 MOL      0.510684
    155 O22         1.8890   -0.0560   -0.1400 o         1 MOL     -0.663238
    156 O23         0.2900    0.4190    1.2890 o         1 MOL     -0.663238
    157 H67         4.0050    3.0140   -0.2310 hn        1 MOL      0.193404
    158 H68         2.4660    5.0580    0.6620 h1        1 MOL      0.176078
    159 H69         1.4390    2.9460   -0.0120 hc        1 MOL      0.139814
    160 H70         0.8540    3.1880    1.6660 hc        1 MOL      0.139814
    161 H71         2.3210    1.6490    2.5820 hc        1 MOL      0.001497
    162 H72         3.2680    1.5960    1.0790 hc        1 MOL      0.001497
    163 N14         4.1830    4.4020    3.1300 n         1 MOL     -0.225305
    164 C55         4.5700    5.0230    4.4240 c3        1 MOL     -0.031139
    165 H73         3.6780    5.3820    4.9360 h1        1 MOL      0.050998
    166 H74         5.0730    4.2830    5.0470 h1        1 MOL      0.050998
    167 H75         5.2430    5.8600    4.2390 h1        1 MOL      0.050998
    168 H76         4.8440    3.8410    2.6130 hn        1 MOL      0.199574
    169 Ca1        -0.3060   -1.2830   -0.7110 Ca        1 MOL      1.737396
    170 O24         0.2660   -0.1520   -3.1220 oh        1 MOL     -0.844809
    171 H77        -0.4010    0.1480   -3.7410 ho        1 MOL      0.399677
    172 H78         0.9520   -0.5180   -3.6760 ho        1 MOL      0.399677
    173 O25        -2.0230   -1.6860    1.2230 oh        1 MOL     -0.844809
    174 H79        -2.9490   -1.6850    1.0000 ho        1 MOL      0.399677
    175 H80        -1.9370   -0.9740    1.8620 ho        1 MOL      0.399677
@<TRIPOS>BOND
     1    1    2 1   
     2    1    4 1   
     3    1    5 1   
     4    1    6 1   
     5    2    3 2   
     6    2    7 1   
     7    7    8 1   
     8    7   15 1   
     9    8    9 1   
    10    8   11 1   
    11    8   16 1   
    12    9   10 2   
    13    9   19 1   
    14   11   12 1   
    15   11   17 1   
    16   11   18 1   
    17   12   13 1   
    18   12   14 1   
    19   19   20 1   
    20   19   24 1   
    21   20   21 1   
    22   20   23 1   
    23   20   25 1   
    24   21   22 2   
    25   21   29 1   
    26   23   26 1   
    27   23   27 1   
    28   23   28 1   
    29   29   30 1   
    30   29   37 1   
    31   30   31 1   
    32   30   33 1   
    33   30   38 1   
    34   31   32 2   
    35   31   41 1   
    36   33   34 1   
    37   33   39 1   
    38   33   40 1   
    39   34   35 1   
    40   34   36 1   
    41   41   42 1   
    42   41   45 1   
    43   42   43 1   
    44   42   46 1   
    45   42   47 1   
    46   43   44 2   
    47   43   48 1   
    48   48   49 1   
    49   48   56 1   
    50   49   50 1   
    51   49   52 1   
    52   49   57 1   
    53   50   51 2   
    54   50   62 1   
    55   52   53 1   
    56   52   58 1   
    57   52   59 1   
    58   53   54 1   
    59   53   55 2   
    60   54   60 1   
    61   54   61 1   
    62   62   63 1   
    63   62   66 1   
    64   63   64 1   
    65   63   67 1   
    66   63   68 1   
    67   64   65 2   
    68   64   69 1   
    69   69   70 1   
    70   69   76 1   
    71   70   71 1   
    72   70   73 1   
    73   70   77 1   
    74   71   72 2   
    75   71   83 1   
    76   73   74 1   
    77   73   75 1   
    78   73   78 1   
    79   74   80 1   
    80   74   81 1   
    81   74   82 1   
    82   75   79 1   
    83   83   84 1   
    84   83   91 1   
    85   84   85 1   
    86   84   87 1   
    87   84   92 1   
    88   85   86 2   
    89   85  102 1   
    90   87   88 1   
    91   87   89 1   
    92   87   93 1   
    93   88   90 1   
    94   88   94 1   
    95   88   95 1   
    96   89   96 1   
    97   89   97 1   
    98   89   98 1   
    99   90   99 1   
   100   90  100 1   
   101   90  101 1   
   102  102  103 1   
   103  102  110 1   
   104  103  104 1   
   105  103  106 1   
   106  103  111 1   
   107  104  105 2   
   108  104  114 1   
   109  106  107 1   
   110  106  112 1   
   111  106  113 1   
   112  107  108 1   
   113  107  109 1   
   114  114  115 1   
   115  114  125 1   
   116  115  116 1   
   117  115  118 1   
   118  115  126 1   
   119  116  117 2   
   120  116  134 1   
   121  118  119 1   
   122  118  127 1   
   123  118  128 1   
   124  119  120 ar  
   125  119  121 ar  
   126  120  122 ar  
   127  120  129 1   
   128  121  123 ar  
   129  121  130 1   
   130  122  124 ar  
   131  122  131 1   
   132  123  124 ar  
   133  123  132 1   
   134  124  133 1   
   135  134  135 1   
   136  134  140 1   
   137  135  136 1   
   138  135  138 1   
   139  135  141 1   
   140  136  137 2   
   141  136  148 1   
   142  138  139 1   
   143  138  142 1   
   144  138  143 1   
   145  139  140 1   
   146  139  144 1   
   147  139  145 1   
   148  140  146 1   
   149  140  147 1   
   150  148  149 1   
   151  148  157 1   
   152  149  150 1   
   153  149  152 1   
   154  149  158 1   
   155  150  151 2   
   156  150  163 1   
   157  152  153 1   
   158  152  159 1   
   159  152  160 1   
   160  153  154 1   
   161  153  161 1   
   162  153  162 1   
   163  154  155 1   
   164  154  156 1   
   165  163  164 1   
   166  163  168 1   
   167  164  165 1   
   168  164  166 1   
   169  164  167 1   
   170  170  171 1   
   171  170  172 1   
   172  173  174 1   
   173  173  175 1   
@<TRIPOS>SUBSTRUCTURE
     1 MOL         1 TEMP              0 ****  ****    0 ROOT
