@<TRIPOS>MOLECULE
MOL
  181   177     1     0     0
SMALL
resp


@<TRIPOS>ATOM
      1 C1         12.4540   -6.6690    1.0240 c3        1 MOL     -0.279259
      2 C2         11.2560   -6.0220    0.2130 c         1 MOL      0.646997
      3 O1         10.5320   -6.7280   -0.4800 o         1 MOL     -0.581989
      4 H1         12.1730   -7.6710    1.3490 hc        1 MOL      0.074819
      5 H2         13.3350   -6.7280    0.3850 hc        1 MOL      0.074819
      6 H3         12.6780   -6.0540    1.8960 hc        1 MOL      0.074819
      7 N1         10.9430   -4.7130    0.2820 n         1 MOL     -0.615169
      8 C3         11.5840   -3.6760    1.0480 c3        1 MOL      0.186903
      9 C4         11.9720   -2.4660    0.2260 c         1 MOL      0.466154
     10 O2         12.4910   -1.4630    0.7630 o         1 MOL     -0.556290
     11 C5         10.6760   -3.2820    2.2640 c3        1 MOL     -0.374573
     12 C6          9.3460   -2.4720    1.9360 c         1 MOL      0.874194
     13 O3          8.7400   -1.8850    2.8600 o         1 MOL     -0.799471
     14 O4          8.9370   -2.2390    0.7620 o         1 MOL     -0.799471
     15 H4         10.1380   -4.4880   -0.2740 hn        1 MOL      0.388832
     16 H5         12.6100   -3.9500    1.3030 h1        1 MOL      0.050738
     17 H6         11.2150   -2.5560    2.8720 hc        1 MOL      0.102251
     18 H7         10.4160   -4.1190    2.9210 hc        1 MOL      0.102251
     19 N2         11.5920   -2.4020   -1.0560 n         1 MOL     -0.428673
     20 C7         11.9700   -1.4270   -2.0970 c3        1 MOL      0.278364
     21 C8         10.9030   -0.4310   -2.5930 c         1 MOL      0.379061
     22 O5         11.1040    0.1920   -3.6180 o         1 MOL     -0.555039
     23 C9         12.6470   -2.2030   -3.2080 c3        1 MOL     -0.100837
     24 H8         11.1280   -3.1960   -1.4600 hn        1 MOL      0.235284
     25 H9         12.7770   -0.7740   -1.7570 h1        1 MOL      0.025415
     26 H10        13.4500   -2.7970   -2.7670 hc        1 MOL      0.022168
     27 H11        11.9460   -2.8950   -3.6750 hc        1 MOL      0.022168
     28 H12        13.1280   -1.6360   -4.0090 hc        1 MOL      0.022168
     29 N3          9.8090   -0.3240   -1.8710 n         1 MOL     -0.164271
     30 C10         8.7360    0.6660   -2.1200 c3        1 MOL     -0.020245
     31 C11         8.2550    1.3560   -0.8020 c         1 MOL      0.231737
     32 O6          8.5100    0.8250    0.2830 o         1 MOL     -0.391852
     33 C12         7.5210    0.0820   -2.9370 c3        1 MOL     -0.144103
     34 C13         6.9230   -1.1520   -2.2290 c         1 MOL      0.646312
     35 O7          7.0720   -2.3110   -2.6920 o         1 MOL     -0.661924
     36 O8          6.3520   -0.9760   -1.1420 o         1 MOL     -0.661924
     37 H13         9.6530   -0.9460   -1.0830 hn        1 MOL      0.208038
     38 H14         9.1020    1.5390   -2.6560 h1        1 MOL      0.078313
     39 H15         7.8210   -0.1780   -3.9560 hc        1 MOL      0.038871
     40 H16         6.7780    0.8820   -3.0170 hc        1 MOL      0.038871
     41 N4          7.5830    2.5440   -0.9180 n         1 MOL     -0.148693
     42 C14         7.1070    3.3650    0.1920 c3        1 MOL     -0.458781
     43 C15         5.8250    2.9040    0.8250 c         1 MOL      0.600975
     44 O9          5.5760    1.6770    0.9880 o         1 MOL     -0.694109
     45 H17         7.6510    2.9830   -1.8260 hn        1 MOL      0.268986
     46 H18         6.9010    4.3760   -0.1480 h1        1 MOL      0.188530
     47 H19         7.8590    3.4700    0.9740 h1        1 MOL      0.188530
     48 N5          5.0020    3.9150    1.2530 n         1 MOL     -0.285263
     49 C16         3.6350    3.6650    1.7780 c3        1 MOL      0.060078
     50 C17         2.6710    4.6990    1.1450 c         1 MOL      0.427379
     51 O10         3.0020    5.8510    0.8330 o         1 MOL     -0.488344
     52 C18         3.7590    3.8570    3.2910 c3        1 MOL     -0.384293
     53 C19         2.4430    3.6330    4.0920 c         1 MOL      0.692509
     54 N6          1.8780    4.6860    4.4980 n         1 MOL     -0.750856
     55 O11         1.9690    2.5390    4.3090 o         1 MOL     -0.567375
     56 H20         5.3350    4.8590    1.1460 hn        1 MOL      0.234018
     57 H21         3.3320    2.6400    1.5740 h1        1 MOL      0.125560
     58 H22         4.2020    4.8110    3.5890 hc        1 MOL      0.088457
     59 H23         4.5400    3.1910    3.6760 hc        1 MOL      0.088457
     60 H24         2.3510    5.5630    4.3430 hn        1 MOL      0.369667
     61 H25         1.0310    4.6140    5.0390 hn        1 MOL      0.369667
     62 N7          1.4120    4.2480    1.0170 n         1 MOL     -0.394424
     63 C20         0.2580    5.0480    0.5360 c3        1 MOL     -0.039794
     64 C21         0.1850    5.2800   -0.9950 c         1 MOL      0.636868
     65 O12         1.1250    4.9490   -1.7520 o         1 MOL     -0.557935
     66 H26         1.3580    3.2530    1.2080 hn        1 MOL      0.302589
     67 H27         0.1890    5.9930    1.0660 h1        1 MOL      0.102393
     68 H28        -0.6270    4.4410    0.7240 h1        1 MOL      0.102393
     69 N8         -0.8640    5.8990   -1.5330 n         1 MOL     -0.606589
     70 C22        -2.1280    6.2800   -0.8640 c3        1 MOL      0.053456
     71 C23        -3.1780    5.1470   -0.6880 c         1 MOL      0.294701
     72 O13        -4.2480    5.3090   -0.0700 o         1 MOL     -0.483400
     73 C24        -2.8670    7.4620   -1.6870 c3        1 MOL      0.436352
     74 C25        -3.9200    8.2400   -0.9290 c3        1 MOL     -0.552286
     75 O14        -1.9200    8.4020   -2.1970 oh        1 MOL     -0.632146
     76 H29        -0.7780    5.9920   -2.5330 hn        1 MOL      0.347315
     77 H30        -1.9210    6.6250    0.1540 h1        1 MOL      0.073540
     78 H31        -3.3350    7.0270   -2.5690 h1        1 MOL      0.046040
     79 H32        -1.7140    9.0110   -1.4900 ho        1 MOL      0.372587
     80 H33        -4.9280    7.9970   -1.2810 hc        1 MOL      0.142271
     81 H34        -3.8740    8.0550    0.1400 hc        1 MOL      0.142271
     82 H35        -3.9300    9.2690   -1.3010 hc        1 MOL      0.142271
     83 N9         -2.9640    4.0030   -1.3720 n         1 MOL     -0.134740
     84 C26        -3.8470    2.8160   -1.4820 c3        1 MOL      0.037009
     85 C27        -3.6710    1.7720   -0.3110 c         1 MOL      0.577135
     86 O15        -2.6000    1.4940    0.0890 o         1 MOL     -0.573952
     87 C28        -3.8300    2.1630   -2.8710 c3        1 MOL      0.132083
     88 C29        -2.4860    1.6140   -3.3450 c3        1 MOL      0.070606
     89 C30        -4.4690    3.2770   -3.8050 c3        1 MOL     -0.166629
     90 C31        -1.2590    2.4810   -3.3100 c3        1 MOL     -0.270868
     91 H36        -2.0940    3.9320   -1.8710 hn        1 MOL      0.067526
     92 H37        -4.8680    3.1790   -1.3250 h1        1 MOL      0.028409
     93 H38        -4.4460    1.2700   -2.8170 hc        1 MOL     -0.005833
     94 H39        -2.5600    1.3380   -4.3980 hc        1 MOL      0.025089
     95 H40        -2.2880    0.7240   -2.7350 hc        1 MOL      0.025089
     96 H41        -5.3920    3.6890   -3.4070 hc        1 MOL      0.031149
     97 H42        -3.8410    4.1350   -4.0280 hc        1 MOL      0.031149
     98 H43        -4.7920    2.8420   -4.7470 hc        1 MOL      0.031149
     99 H44        -1.0540    2.6910   -2.2620 hc        1 MOL      0.070183
    100 H45        -0.3610    1.9410   -3.6270 hc        1 MOL      0.070183
    101 H46        -1.4680    3.3460   -3.9390 hc        1 MOL      0.070183
    102 N10        -4.6760    1.0880    0.2380 n         1 MOL     -0.476230
    103 C32        -6.0740    1.3070   -0.0360 c3        1 MOL      0.202934
    104 C33        -6.9460    0.1380    0.3470 c         1 MOL      0.245595
    105 O16        -6.5070   -0.4870    1.2990 o         1 MOL     -0.437061
    106 C34        -6.5830    2.5120    0.8670 c3        1 MOL     -0.145550
    107 C35        -6.2560    2.3460    2.3790 c         1 MOL      0.687577
    108 O17        -5.0760    2.4240    2.8570 o         1 MOL     -0.695834
    109 O18        -7.2280    2.1280    3.1460 o         1 MOL     -0.695834
    110 H47        -4.4400    0.3410    0.8720 hn        1 MOL      0.334087
    111 H48        -6.2620    1.5680   -1.0690 h1        1 MOL      0.019934
    112 H49        -7.6300    2.7810    0.7200 hc        1 MOL      0.007529
    113 H50        -6.0590    3.4140    0.5540 hc        1 MOL      0.007529
    114 N11        -8.0890   -0.1500   -0.2380 n         1 MOL     -0.455365
    115 C36        -9.1720   -0.9650    0.3300 c3        1 MOL      0.410294
    116 C37        -9.8930   -1.6190   -0.8590 c         1 MOL      0.162200
    117 O19       -10.3030   -0.8870   -1.7470 o         1 MOL     -0.495226
    118 C38       -10.1030   -0.0040    1.0890 c3        1 MOL     -0.076136
    119 C39       -11.2530   -0.6970    1.7850 ca        1 MOL      0.090908
    120 C40       -12.4210   -0.9500    1.0830 ca        1 MOL     -0.223781
    121 C41       -11.0430   -1.1530    3.1140 ca        1 MOL     -0.223781
    122 C42       -13.3860   -1.6800    1.7330 ca        1 MOL     -0.040046
    123 C43       -12.1190   -1.7570    3.7460 ca        1 MOL     -0.040046
    124 C44       -13.2440   -2.0840    3.0720 ca        1 MOL     -0.170270
    125 H51        -8.3700    0.3730   -1.0610 hn        1 MOL      0.302559
    126 H52        -8.8260   -1.8010    0.9380 h1        1 MOL     -0.024275
    127 H53       -10.4630    0.8570    0.5270 hc        1 MOL      0.043051
    128 H54        -9.4590    0.4590    1.8210 hc        1 MOL      0.043051
    129 H55       -12.5280   -0.5310    0.0920 ha        1 MOL      0.162809
    130 H56       -10.1050   -1.0340    3.6420 ha        1 MOL      0.162809
    131 H57       -14.3570   -1.8350    1.2710 ha        1 MOL      0.076609
    132 H58       -11.9900   -2.1300    4.7500 ha        1 MOL      0.076609
    133 H59       -14.1070   -2.5730    3.4910 ha        1 MOL      0.091146
    134 N12       -10.2730   -2.9400   -0.8300 n         1 MOL      0.025829
    135 C45        -9.9180   -3.8590    0.2040 c3        1 MOL     -0.004247
    136 C46        -8.3830   -4.1470    0.3140 c         1 MOL      0.476962
    137 O20        -7.9770   -4.4530    1.4180 o         1 MOL     -0.534594
    138 C47       -10.6570   -5.1630   -0.0460 c3        1 MOL     -0.071190
    139 C48       -11.9010   -4.6430   -0.8540 c3        1 MOL      0.018324
    140 C49       -11.3740   -3.4650   -1.6260 c3        1 MOL      0.010777
    141 H60       -10.3150   -3.4000    1.1110 h1        1 MOL      0.065655
    142 H61       -10.0390   -5.7870   -0.6870 hc        1 MOL      0.040076
    143 H62       -10.9740   -5.7360    0.8210 hc        1 MOL      0.040076
    144 H63       -12.3240   -5.3810   -1.5420 hc        1 MOL     -0.005031
    145 H64       -12.7160   -4.3650   -0.1750 hc        1 MOL     -0.005031
    146 H65       -11.1530   -3.7050   -2.6600 h1        1 MOL      0.020614
    147 H66       -12.1330   -2.7040   -1.4830 h1        1 MOL      0.020614
    148 N13        -7.5640   -4.0180   -0.7760 n         1 MOL     -0.396777
    149 C50        -6.0940   -4.3250   -0.7860 c3        1 MOL      0.174806
    150 C51        -5.8870   -5.7550   -0.4130 c         1 MOL      0.429537
    151 O21        -6.0730   -6.6340   -1.2820 o         1 MOL     -0.585329
    152 C52        -5.5360   -3.9270   -2.2020 c3        1 MOL     -0.131355
    153 C53        -5.8490   -2.4670   -2.6480 c3        1 MOL     -0.084520
    154 C54        -5.1610   -2.1880   -4.0090 c         1 MOL      0.699335
    155 O22        -5.8390   -1.4180   -4.7260 o         1 MOL     -0.726324
    156 O23        -4.0250   -2.5240   -4.3350 o         1 MOL     -0.726324
    157 H67        -8.1020   -4.0200   -1.6380 hn        1 MOL      0.271822
    158 H68        -5.5090   -3.6220   -0.1930 h1        1 MOL      0.084876
    159 H69        -6.0950   -4.5760   -2.8820 hc        1 MOL      0.038199
    160 H70        -4.4820   -4.1250   -2.0440 hc        1 MOL      0.038199
    161 H71        -5.4150   -1.8850   -1.8290 hc        1 MOL     -0.000235
    162 H72        -6.9070   -2.2240   -2.7660 hc        1 MOL     -0.000235
    163 N14        -5.2750   -6.1810    0.7100 n         1 MOL     -0.321859
    164 C55        -5.0790   -5.4460    1.9820 c3        1 MOL     -0.146393
    165 H73        -4.7990   -6.1490    2.7670 h1        1 MOL      0.078512
    166 H74        -4.2880   -4.7080    1.8570 h1        1 MOL      0.078512
    167 H75        -6.0050   -4.9430    2.2590 h1        1 MOL      0.078512
    168 H76        -5.0760   -7.1710    0.6950 hn        1 MOL      0.257944
    169 Ca1         6.6310   -0.7390    1.2830 Ca        1 MOL      1.772190
    170 O24         5.4870   -1.0870    3.8950 oh        1 MOL     -0.798240
    171 H77         5.2160   -1.7990    4.4710 ho        1 MOL      0.397536
    172 H78         5.4080   -0.2970    4.4310 ho        1 MOL      0.397536
    173 O25         5.8250   -3.4480    1.3660 oh        1 MOL     -0.798240
    174 H79         5.0210   -3.6090    1.8750 ho        1 MOL      0.397536
    175 H80         5.7580   -4.0270    0.6090 ho        1 MOL      0.397536
    176 O26         3.9350   -0.9980    0.9670 oh        1 MOL     -0.798240
    177 H81         3.3480   -0.4560    1.5080 ho        1 MOL      0.397536
    178 H82         3.3380   -1.5360    0.4440 ho        1 MOL      0.397536
    179 O27         7.6330    1.1360    3.2970 oh        1 MOL     -0.798240
    180 H83         8.0190    1.8860    3.7570 ho        1 MOL      0.397536
    181 H84         6.9980    0.7810    3.9190 ho        1 MOL      0.397536
@<TRIPOS>BOND
     1    1    2 1   
     2    1    4 1   
     3    1    5 1   
     4    1    6 1   
     5    2    3 2   
     6    2    7 1   
     7    7    8 1   
     8    7   15 1   
     9    8    9 1   
    10    8   11 1   
    11    8   16 1   
    12    9   10 2   
    13    9   19 1   
    14   11   12 1   
    15   11   17 1   
    16   11   18 1   
    17   12   13 1   
    18   12   14 1   
    19   19   20 1   
    20   19   24 1   
    21   20   21 1   
    22   20   23 1   
    23   20   25 1   
    24   21   22 2   
    25   21   29 1   
    26   23   26 1   
    27   23   27 1   
    28   23   28 1   
    29   29   30 1   
    30   29   37 1   
    31   30   31 1   
    32   30   33 1   
    33   30   38 1   
    34   31   32 2   
    35   31   41 1   
    36   33   34 1   
    37   33   39 1   
    38   33   40 1   
    39   34   35 1   
    40   34   36 1   
    41   41   42 1   
    42   41   45 1   
    43   42   43 1   
    44   42   46 1   
    45   42   47 1   
    46   43   44 2   
    47   43   48 1   
    48   48   49 1   
    49   48   56 1   
    50   49   50 1   
    51   49   52 1   
    52   49   57 1   
    53   50   51 2   
    54   50   62 1   
    55   52   53 1   
    56   52   58 1   
    57   52   59 1   
    58   53   54 1   
    59   53   55 2   
    60   54   60 1   
    61   54   61 1   
    62   62   63 1   
    63   62   66 1   
    64   63   64 1   
    65   63   67 1   
    66   63   68 1   
    67   64   65 2   
    68   64   69 1   
    69   69   70 1   
    70   69   76 1   
    71   70   71 1   
    72   70   73 1   
    73   70   77 1   
    74   71   72 2   
    75   71   83 1   
    76   73   74 1   
    77   73   75 1   
    78   73   78 1   
    79   74   80 1   
    80   74   81 1   
    81   74   82 1   
    82   75   79 1   
    83   83   84 1   
    84   83   91 1   
    85   84   85 1   
    86   84   87 1   
    87   84   92 1   
    88   85   86 2   
    89   85  102 1   
    90   87   88 1   
    91   87   89 1   
    92   87   93 1   
    93   88   90 1   
    94   88   94 1   
    95   88   95 1   
    96   89   96 1   
    97   89   97 1   
    98   89   98 1   
    99   90   99 1   
   100   90  100 1   
   101   90  101 1   
   102  102  103 1   
   103  102  110 1   
   104  103  104 1   
   105  103  106 1   
   106  103  111 1   
   107  104  105 2   
   108  104  114 1   
   109  106  107 1   
   110  106  112 1   
   111  106  113 1   
   112  107  108 1   
   113  107  109 1   
   114  114  115 1   
   115  114  125 1   
   116  115  116 1   
   117  115  118 1   
   118  115  126 1   
   119  116  117 2   
   120  116  134 1   
   121  118  119 1   
   122  118  127 1   
   123  118  128 1   
   124  119  120 ar  
   125  119  121 ar  
   126  120  122 ar  
   127  120  129 1   
   128  121  123 ar  
   129  121  130 1   
   130  122  124 ar  
   131  122  131 1   
   132  123  124 ar  
   133  123  132 1   
   134  124  133 1   
   135  134  135 1   
   136  134  140 1   
   137  135  136 1   
   138  135  138 1   
   139  135  141 1   
   140  136  137 2   
   141  136  148 1   
   142  138  139 1   
   143  138  142 1   
   144  138  143 1   
   145  139  140 1   
   146  139  144 1   
   147  139  145 1   
   148  140  146 1   
   149  140  147 1   
   150  148  149 1   
   151  148  157 1   
   152  149  150 1   
   153  149  152 1   
   154  149  158 1   
   155  150  151 2   
   156  150  163 1   
   157  152  153 1   
   158  152  159 1   
   159  152  160 1   
   160  153  154 1   
   161  153  161 1   
   162  153  162 1   
   163  154  155 1   
   164  154  156 1   
   165  163  164 1   
   166  163  168 1   
   167  164  165 1   
   168  164  166 1   
   169  164  167 1   
   170  170  171 1   
   171  170  172 1   
   172  173  174 1   
   173  173  175 1   
   174  176  177 1   
   175  176  178 1   
   176  179  180 1   
   177  179  181 1   
@<TRIPOS>SUBSTRUCTURE
     1 MOL         1 TEMP              0 ****  ****    0 ROOT
