@<TRIPOS>MOLECULE
MOL
  201   193     1     0     0
SMALL
resp


@<TRIPOS>ATOM
      1 C1          3.2960   -3.9990   -2.2070 c3        1 MOL     -0.538484
      2 C2          2.3230   -2.9930   -1.4860 c         1 MOL      0.761729
      3 O1          2.6920   -1.8720   -1.3320 o         1 MOL     -0.655250
      4 H1          4.2200   -3.4840   -2.4690 hc        1 MOL      0.118173
      5 H2          3.5200   -4.8300   -1.5390 hc        1 MOL      0.118173
      6 H3          2.8220   -4.3780   -3.1130 hc        1 MOL      0.118173
      7 N1          1.1530   -3.2520   -0.9360 n         1 MOL     -0.216920
      8 C3          0.5140   -4.5600   -0.4840 c3        1 MOL     -0.172566
      9 C4         -0.2300   -5.2970   -1.6080 c         1 MOL      0.401596
     10 O2         -0.3650   -6.5130   -1.5410 o         1 MOL     -0.549649
     11 C5         -0.5400   -4.2800    0.6470 c3        1 MOL     -0.419010
     12 C6          0.3210   -3.7070    1.7770 c         1 MOL      0.547218
     13 O3          0.8410   -4.4870    2.6570 o         1 MOL     -0.560236
     14 O4          0.4270   -2.4510    1.9030 o         1 MOL     -0.560236
     15 H4          0.5330   -2.4660   -0.7980 hn        1 MOL      0.138222
     16 H5          1.3100   -5.2380   -0.1590 h1        1 MOL      0.144073
     17 H6         -1.0540   -5.1950    0.9130 hc        1 MOL      0.179524
     18 H7         -1.2600   -3.5880    0.1980 hc        1 MOL      0.179524
     19 N2         -0.7570   -4.5470   -2.5480 n         1 MOL     -0.007721
     20 C7         -1.5660   -5.0640   -3.7290 c3        1 MOL     -0.331032
     21 C8         -3.0630   -5.3280   -3.3130 c         1 MOL      0.545866
     22 O5         -3.6110   -6.3480   -3.7440 o         1 MOL     -0.584076
     23 C9         -1.3530   -4.1280   -4.9150 c3        1 MOL      0.256326
     24 C10        -1.9740   -2.7000   -4.6660 c3        1 MOL      0.041669
     25 C11         0.1010   -3.9000   -5.3900 c3        1 MOL     -0.248106
     26 C12        -3.3970   -2.5240   -5.2730 c3        1 MOL     -0.201129
     27 H8         -0.8770   -3.5890   -2.2550 hn        1 MOL     -0.011050
     28 H9         -1.2190   -6.0500   -4.0420 h1        1 MOL      0.130250
     29 H10        -1.9070   -4.5860   -5.7390 hc        1 MOL     -0.013919
     30 H11        -1.3620   -1.9070   -5.0930 hc        1 MOL     -0.004810
     31 H12        -2.1750   -2.4580   -3.6200 hc        1 MOL     -0.004810
     32 H13         0.5030   -4.8030   -5.8370 hc        1 MOL      0.045541
     33 H14         0.0570   -3.2600   -6.2730 hc        1 MOL      0.045541
     34 H15         0.6950   -3.5440   -4.5410 hc        1 MOL      0.045541
     35 H16        -4.0500   -3.3760   -5.0770 hc        1 MOL      0.034868
     36 H17        -3.9930   -1.6600   -4.9510 hc        1 MOL      0.034868
     37 H18        -3.2630   -2.4010   -6.3460 hc        1 MOL      0.034868
     38 N3         -3.5770   -4.6150   -2.3550 n         1 MOL     -0.019070
     39 C13        -4.8080   -4.8170   -1.6770 c3        1 MOL     -0.105058
     40 C14        -4.6080   -4.3270   -0.2500 c         1 MOL      0.481153
     41 O6         -3.7770   -3.4700    0.0560 o         1 MOL     -0.496485
     42 C15        -5.9930   -4.1760   -2.4470 c3        1 MOL     -0.215346
     43 C16        -7.2680   -4.9710   -2.1080 c         1 MOL      0.753841
     44 O7         -7.2190   -5.8110   -1.1850 o         1 MOL     -0.697357
     45 O8         -8.3070   -4.8070   -2.7840 o         1 MOL     -0.697357
     46 H19        -3.0050   -3.8640   -1.9870 hn        1 MOL      0.090770
     47 H20        -4.9850   -5.8950   -1.6920 h1        1 MOL      0.068122
     48 H21        -5.8280   -4.3250   -3.5130 hc        1 MOL      0.056449
     49 H22        -6.2580   -3.1470   -2.1980 hc        1 MOL      0.056449
     50 N4         -5.3920   -4.8690    0.6240 n         1 MOL     -0.340053
     51 C17        -5.3040   -4.5830    2.0610 c3        1 MOL     -0.014895
     52 C18        -5.6970   -3.1640    2.4500 c         1 MOL      0.432051
     53 O9         -5.1530   -2.5810    3.4140 o         1 MOL     -0.537524
     54 H23        -6.1150   -5.5310    0.3780 hn        1 MOL      0.281024
     55 H24        -4.2630   -4.7710    2.3300 h1        1 MOL      0.056947
     56 H25        -5.8920   -5.3250    2.6060 h1        1 MOL      0.056947
     57 N5         -6.5240   -2.5630    1.6070 n         1 MOL     -0.172788
     58 C19        -6.4820   -1.1060    1.4550 c3        1 MOL      0.003789
     59 C20        -6.8350   -0.6370    0.0490 c         1 MOL      0.413777
     60 O10        -7.4330   -1.3760   -0.7500 o         1 MOL     -0.458471
     61 C21        -7.5180   -0.4760    2.4380 c3        1 MOL     -0.198163
     62 C22        -8.8730   -1.1290    2.4670 c         1 MOL      0.701780
     63 O11        -9.8350   -0.8270    1.7270 o         1 MOL     -0.659759
     64 O12        -9.0010   -1.9530    3.3120 o         1 MOL     -0.659759
     65 H26        -6.9010   -3.1490    0.8810 hn        1 MOL      0.239720
     66 H27        -5.4660   -0.7740    1.6890 h1        1 MOL      0.069859
     67 H28        -7.6520    0.5770    2.1930 hc        1 MOL      0.044905
     68 H29        -7.0590   -0.4790    3.4210 hc        1 MOL      0.044905
     69 N6         -6.4350    0.5610   -0.4100 n         1 MOL     -0.409796
     70 C23        -5.5520    1.5510    0.2350 c3        1 MOL      0.025062
     71 C24        -6.0730    2.9610   -0.0400 c         1 MOL      0.488992
     72 O13        -6.5230    3.2390   -1.1360 o         1 MOL     -0.535294
     73 H30        -6.7350    0.7950   -1.3420 hn        1 MOL      0.273110
     74 H31        -4.5430    1.4690   -0.1600 h1        1 MOL      0.093111
     75 H32        -5.4480    1.2690    1.2840 h1        1 MOL      0.093111
     76 N7         -6.0510    3.9340    0.8870 n         1 MOL     -0.414625
     77 C25        -5.4780    4.0550    2.2770 c3        1 MOL      0.087862
     78 C26        -4.0790    3.4370    2.5260 c         1 MOL      0.297060
     79 O14        -3.7650    2.6490    3.4260 o         1 MOL     -0.467231
     80 C27        -6.4610    3.6250    3.3320 c3        1 MOL      0.083719
     81 C28        -7.6780    4.4670    3.3460 c3        1 MOL     -0.062880
     82 C29        -8.5310    4.2860    4.5910 c         1 MOL      0.531866
     83 N8         -9.0160    3.1260    4.9910 n         1 MOL     -0.690388
     84 O15        -8.6680    5.2320    5.4030 o         1 MOL     -0.586810
     85 H33        -6.3260    4.8410    0.5370 hn        1 MOL      0.260128
     86 H34        -5.2810    5.1020    2.5090 h1        1 MOL      0.050606
     87 H35        -5.9290    3.7550    4.2740 hc        1 MOL      0.008460
     88 H36        -6.6810    2.5660    3.2730 hc        1 MOL      0.008460
     89 H37        -8.2690    4.2530    2.4550 hc        1 MOL      0.013698
     90 H38        -7.3470    5.4970    3.2180 hc        1 MOL      0.013698
     91 H39        -9.0360    2.2860    4.4390 hn        1 MOL      0.348393
     92 H40        -9.5560    3.1870    5.8500 hn        1 MOL      0.348393
     93 N9         -3.2190    3.6110    1.4870 n         1 MOL     -0.155259
     94 C30        -1.9850    2.8850    1.1170 c3        1 MOL     -0.014383
     95 C31        -1.9220    2.8100   -0.3920 c         1 MOL      0.274370
     96 O16        -2.6290    3.5500   -1.0640 o         1 MOL     -0.486927
     97 C32        -0.7070    3.6420    1.6720 c3        1 MOL      0.018252
     98 C33        -0.6340    3.6480    3.2150 c3        1 MOL     -0.204688
     99 C34        -0.5770    5.0470    1.1630 c3        1 MOL     -0.204688
    100 H41        -3.5150    4.2710    0.7800 hn        1 MOL      0.161641
    101 H42        -2.1140    1.8350    1.3970 h1        1 MOL      0.099108
    102 H43         0.1430    3.0470    1.3650 hc        1 MOL      0.078892
    103 H44         0.3740    3.9780    3.4850 hc        1 MOL      0.071909
    104 H45        -1.4590    4.2670    3.5730 hc        1 MOL      0.071909
    105 H46        -0.8830    2.6850    3.6560 hc        1 MOL      0.071909
    106 H47        -1.4480    5.6070    1.4990 hc        1 MOL      0.071909
    107 H48         0.2920    5.5740    1.5620 hc        1 MOL      0.071909
    108 H49        -0.5590    4.9880    0.0690 hc        1 MOL      0.071909
    109 N10        -0.9860    1.9850   -0.8380 n         1 MOL     -0.256102
    110 C35        -0.8030    1.7380   -2.2770 c3        1 MOL     -0.028757
    111 C36         0.1990    2.6890   -2.9590 c         1 MOL      0.523209
    112 O17         0.4590    2.6080   -4.1330 o         1 MOL     -0.537464
    113 C37        -0.6050    0.2500   -2.4880 c3        1 MOL     -0.125300
    114 C38        -1.4990   -0.7380   -1.7190 c         1 MOL      0.631220
    115 N11        -2.7890   -0.5940   -1.5290 n         1 MOL     -0.771476
    116 O18        -1.0110   -1.7670   -1.2740 o         1 MOL     -0.471065
    117 H50        -0.3760    1.5460   -0.1640 hn        1 MOL      0.282351
    118 H51        -1.7280    2.0210   -2.7930 h1        1 MOL      0.111027
    119 H52         0.4400   -0.0100   -2.3090 hc        1 MOL      0.066652
    120 H53        -0.7730   -0.0280   -3.5380 hc        1 MOL      0.066652
    121 H54        -3.2680    0.2140   -1.9040 hn        1 MOL      0.369810
    122 H55        -3.2200   -1.4190   -1.1300 hn        1 MOL      0.369810
    123 N12         0.8230    3.5830   -2.1720 n         1 MOL     -0.173798
    124 C39         2.0810    4.2380   -2.5320 c3        1 MOL      0.005769
    125 C40         3.0630    4.2060   -1.3500 c         1 MOL      0.535557
    126 O19         2.7500    4.3540   -0.1780 o         1 MOL     -0.481897
    127 C41         1.8180    5.6390   -3.1130 c3        1 MOL      0.074204
    128 C42         1.0850    6.6010   -2.2610 ca        1 MOL      0.139096
    129 C43         1.7450    7.3070   -1.2730 ca        1 MOL     -0.196110
    130 C44        -0.2490    6.9000   -2.4580 ca        1 MOL     -0.196110
    131 C45         0.9890    8.0600   -0.3090 ca        1 MOL     -0.154322
    132 C46        -1.0430    7.5810   -1.5560 ca        1 MOL     -0.154322
    133 C47        -0.4530    8.1740   -0.4570 ca        1 MOL      0.147552
    134 O20        -1.1290    8.9470    0.4500 oh        1 MOL     -0.441545
    135 H56         0.5110    3.6980   -1.2240 hn        1 MOL      0.024274
    136 H57         2.6210    3.7580   -3.3440 h1        1 MOL      0.081484
    137 H58         1.2350    5.3940   -4.0000 hc        1 MOL     -0.043010
    138 H59         2.7550    6.1630   -3.3310 hc        1 MOL     -0.043010
    139 H60         2.8140    7.2200   -1.1490 ha        1 MOL      0.121898
    140 H61        -0.8050    6.4470   -3.2690 ha        1 MOL      0.121898
    141 H62         1.5180    8.5030    0.5140 ha        1 MOL      0.133875
    142 H63        -2.0770    7.8110   -1.7910 ha        1 MOL      0.133875
    143 H64        -2.0480    9.0760    0.2000 ho        1 MOL      0.340907
    144 N13         4.2950    3.9720   -1.6750 n         1 MOL     -0.448471
    145 C48         5.4890    4.0440   -0.8440 c3        1 MOL     -0.031035
    146 C49         6.5300    3.0660   -1.3570 c         1 MOL      0.576262
    147 O21         7.4260    3.3350   -2.1610 o         1 MOL     -0.525216
    148 C50         5.9820    5.4810   -0.7700 c3        1 MOL     -0.213250
    149 C51         6.8360    5.7430    0.4990 c3        1 MOL     -0.172453
    150 C52         7.0770    7.2080    0.5970 c         1 MOL      0.669940
    151 O22         6.1410    8.0140    0.8520 o         1 MOL     -0.701603
    152 O23         8.2730    7.6100    0.5580 o         1 MOL     -0.701603
    153 H65         4.4790    3.9870   -2.6670 hn        1 MOL      0.270272
    154 H66         5.1920    3.6700    0.1370 h1        1 MOL      0.050244
    155 H67         5.0850    6.0980   -0.6670 hc        1 MOL      0.122908
    156 H68         6.4230    5.7870   -1.7230 hc        1 MOL      0.122908
    157 H69         7.7890    5.2370    0.5020 hc        1 MOL      0.055946
    158 H70         6.1720    5.4510    1.3200 hc        1 MOL      0.055946
    159 N14         6.4290    1.7850   -0.9390 n         1 MOL     -0.659592
    160 C53         7.0570    0.6530   -1.5950 c3        1 MOL      0.630541
    161 C54         6.4780    0.4720   -2.9750 c         1 MOL      0.251638
    162 O24         7.1660   -0.0210   -3.8670 o         1 MOL     -0.554368
    163 C55         6.7820   -0.6380   -0.8250 c3        1 MOL     -0.266013
    164 C56         7.6020   -0.5780    0.4990 c3        1 MOL     -0.515630
    165 C57         7.1510   -1.6880    1.5240 c         1 MOL      0.561300
    166 O25         6.9070   -2.8400    1.0740 o         1 MOL     -0.525766
    167 O26         7.3680   -1.5330    2.7410 o         1 MOL     -0.525766
    168 H71         5.7070    1.5320   -0.2700 hn        1 MOL      0.378823
    169 H72         8.1290    0.8440   -1.6530 h1        1 MOL     -0.048998
    170 H73         7.0690   -1.5490   -1.3460 hc        1 MOL      0.083521
    171 H74         5.7160   -0.6770   -0.6160 hc        1 MOL      0.083521
    172 H75         7.4290    0.4420    0.8370 hc        1 MOL      0.151395
    173 H76         8.6630   -0.6580    0.2420 hc        1 MOL      0.151395
    174 N15         5.2160    0.8300   -3.1540 n         1 MOL     -0.087237
    175 C58         4.4890    0.8030   -4.4390 c3        1 MOL     -0.083713
    176 H77         5.0940    0.2890   -5.1870 h1        1 MOL      0.058004
    177 H78         3.5440    0.2750   -4.3110 h1        1 MOL      0.058004
    178 H79         4.2940    1.8230   -4.7690 h1        1 MOL      0.058004
    179 H80         4.6900    1.1860   -2.3680 hn        1 MOL      0.112025
    180 Ca1         7.6930   -4.1930    3.1100 Ca        1 MOL      1.618894
    181 O27         7.6220   -2.6230    5.3800 oh        1 MOL     -0.791730
    182 H81         6.9320   -1.9560    5.4720 ho        1 MOL      0.356777
    183 H82         7.8030   -2.9040    6.2710 ho        1 MOL      0.356777
    184 O28         9.8800   -3.6060    1.4770 oh        1 MOL     -0.791730
    185 H83         9.8760   -3.4190    0.5370 ho        1 MOL      0.356777
    186 H84        10.6840   -4.1140    1.6150 ho        1 MOL      0.356777
    187 O29         8.2560   -5.7220    5.0500 oh        1 MOL     -0.791730
    188 H85         8.3710   -6.6300    4.7940 ho        1 MOL      0.356777
    189 H86         8.3060   -5.7320    6.0050 ho        1 MOL      0.356777
    190 O30         5.3680   -4.7060    4.9270 oh        1 MOL     -0.791730
    191 H87         5.3190   -5.5340    5.3970 ho        1 MOL      0.356777
    192 H88         4.4660   -4.3770    4.9280 ho        1 MOL      0.356777
    193 O31        10.1870   -2.8720    4.4790 oh        1 MOL     -0.791730
    194 H89        11.1180   -2.8300    4.6560 ho        1 MOL      0.356777
    195 H90         9.7790   -2.4340    5.2180 ho        1 MOL      0.356777
    196 O32         5.9370   -5.6660    1.9160 oh        1 MOL     -0.791730
    197 H91         5.0470   -5.8340    2.2240 ho        1 MOL      0.356777
    198 H92         6.0040   -6.1430    1.0960 ho        1 MOL      0.356777
    199 O33         9.2520   -6.1920    2.3830 oh        1 MOL     -0.791730
    200 H93        10.1930   -6.1500    2.2000 ho        1 MOL      0.356777
    201 H94         9.0120   -7.0910    2.1500 ho        1 MOL      0.356777
@<TRIPOS>BOND
     1    1    2 1   
     2    1    4 1   
     3    1    5 1   
     4    1    6 1   
     5    2    3 2   
     6    2    7 1   
     7    7    8 1   
     8    7   15 1   
     9    8    9 1   
    10    8   11 1   
    11    8   16 1   
    12    9   10 2   
    13    9   19 1   
    14   11   12 1   
    15   11   17 1   
    16   11   18 1   
    17   12   13 1   
    18   12   14 1   
    19   19   20 1   
    20   19   27 1   
    21   20   21 1   
    22   20   23 1   
    23   20   28 1   
    24   21   22 2   
    25   21   38 1   
    26   23   24 1   
    27   23   25 1   
    28   23   29 1   
    29   24   26 1   
    30   24   30 1   
    31   24   31 1   
    32   25   32 1   
    33   25   33 1   
    34   25   34 1   
    35   26   35 1   
    36   26   36 1   
    37   26   37 1   
    38   38   39 1   
    39   38   46 1   
    40   39   40 1   
    41   39   42 1   
    42   39   47 1   
    43   40   41 2   
    44   40   50 1   
    45   42   43 1   
    46   42   48 1   
    47   42   49 1   
    48   43   44 1   
    49   43   45 1   
    50   50   51 1   
    51   50   54 1   
    52   51   52 1   
    53   51   55 1   
    54   51   56 1   
    55   52   53 2   
    56   52   57 1   
    57   57   58 1   
    58   57   65 1   
    59   58   59 1   
    60   58   61 1   
    61   58   66 1   
    62   59   60 2   
    63   59   69 1   
    64   61   62 1   
    65   61   67 1   
    66   61   68 1   
    67   62   63 1   
    68   62   64 1   
    69   69   70 1   
    70   69   73 1   
    71   70   71 1   
    72   70   74 1   
    73   70   75 1   
    74   71   72 2   
    75   71   76 1   
    76   76   77 1   
    77   76   85 1   
    78   77   78 1   
    79   77   80 1   
    80   77   86 1   
    81   78   79 2   
    82   78   93 1   
    83   80   81 1   
    84   80   87 1   
    85   80   88 1   
    86   81   82 1   
    87   81   89 1   
    88   81   90 1   
    89   82   83 1   
    90   82   84 2   
    91   83   91 1   
    92   83   92 1   
    93   93   94 1   
    94   93  100 1   
    95   94   95 1   
    96   94   97 1   
    97   94  101 1   
    98   95   96 2   
    99   95  109 1   
   100   97   98 1   
   101   97   99 1   
   102   97  102 1   
   103   98  103 1   
   104   98  104 1   
   105   98  105 1   
   106   99  106 1   
   107   99  107 1   
   108   99  108 1   
   109  109  110 1   
   110  109  117 1   
   111  110  111 1   
   112  110  113 1   
   113  110  118 1   
   114  111  112 2   
   115  111  123 1   
   116  113  114 1   
   117  113  119 1   
   118  113  120 1   
   119  114  115 1   
   120  114  116 2   
   121  115  121 1   
   122  115  122 1   
   123  123  124 1   
   124  123  135 1   
   125  124  125 1   
   126  124  127 1   
   127  124  136 1   
   128  125  126 2   
   129  125  144 1   
   130  127  128 1   
   131  127  137 1   
   132  127  138 1   
   133  128  129 ar  
   134  128  130 ar  
   135  129  131 ar  
   136  129  139 1   
   137  130  132 ar  
   138  130  140 1   
   139  131  133 ar  
   140  131  141 1   
   141  132  133 ar  
   142  132  142 1   
   143  133  134 1   
   144  134  143 1   
   145  144  145 1   
   146  144  153 1   
   147  145  146 1   
   148  145  148 1   
   149  145  154 1   
   150  146  147 2   
   151  146  159 1   
   152  148  149 1   
   153  148  155 1   
   154  148  156 1   
   155  149  150 1   
   156  149  157 1   
   157  149  158 1   
   158  150  151 1   
   159  150  152 1   
   160  159  160 1   
   161  159  168 1   
   162  160  161 1   
   163  160  163 1   
   164  160  169 1   
   165  161  162 2   
   166  161  174 1   
   167  163  164 1   
   168  163  170 1   
   169  163  171 1   
   170  164  165 1   
   171  164  172 1   
   172  164  173 1   
   173  165  166 1   
   174  165  167 1   
   175  174  175 1   
   176  174  179 1   
   177  175  176 1   
   178  175  177 1   
   179  175  178 1   
   180  181  182 1   
   181  181  183 1   
   182  184  185 1   
   183  184  186 1   
   184  187  188 1   
   185  187  189 1   
   186  190  191 1   
   187  190  192 1   
   188  193  194 1   
   189  193  195 1   
   190  196  197 1   
   191  196  198 1   
   192  199  200 1   
   193  199  201 1   
@<TRIPOS>SUBSTRUCTURE
     1 MOL         1 TEMP              0 ****  ****    0 ROOT
