@<TRIPOS>MOLECULE
MOL
  185   180     1     0     0
SMALL
resp


@<TRIPOS>ATOM
      1 C1         -5.2410    0.8650   -4.0970 c3        1 MOL     -0.398186
      2 C2         -6.0630    0.7860   -2.7870 c         1 MOL      0.502478
      3 O1         -5.5320    0.5560   -1.7820 o         1 MOL     -0.385769
      4 H1         -4.4970    1.6580   -4.0110 hc        1 MOL      0.104400
      5 H2         -4.7380   -0.0860   -4.2700 hc        1 MOL      0.104400
      6 H3         -5.9070    1.0810   -4.9320 hc        1 MOL      0.104400
      7 N1         -7.4150    0.8410   -2.8720 n         1 MOL     -0.471144
      8 C3         -8.4180    0.7620   -1.7630 c3        1 MOL     -0.009711
      9 C4         -8.1870   -0.2440   -0.6550 c         1 MOL      0.416157
     10 O2         -8.4090    0.0220    0.5350 o         1 MOL     -0.449053
     11 C5         -8.3820    2.2340   -1.2340 c3        1 MOL     -0.197326
     12 C6         -9.5420    2.4980   -0.2550 c         1 MOL      0.715330
     13 O3        -10.6720    2.0480   -0.5340 o         1 MOL     -0.719744
     14 O4         -9.2520    3.1400    0.7540 o         1 MOL     -0.719744
     15 H4         -7.8360    0.9230   -3.7870 hn        1 MOL      0.307770
     16 H5         -9.3460    0.4010   -2.2120 h1        1 MOL      0.055580
     17 H6         -8.4910    3.0010   -2.0020 hc        1 MOL      0.060679
     18 H7         -7.4340    2.4760   -0.7720 hc        1 MOL      0.060679
     19 N2         -7.6820   -1.4380   -0.9610 n         1 MOL     -0.204021
     20 C7         -7.5260   -2.5790   -0.0860 c3        1 MOL      0.028531
     21 C8         -6.0340   -2.9450    0.1660 c         1 MOL      0.499623
     22 O5         -5.6710   -3.8610    0.9140 o         1 MOL     -0.568420
     23 C9         -8.3400   -3.6840   -0.6810 c3        1 MOL     -0.153998
     24 C10        -9.8060   -3.4080   -0.9210 c3        1 MOL      0.056872
     25 C11       -10.5850   -2.8450    0.2180 c3        1 MOL     -0.014187
     26 C12       -12.0720   -2.6550   -0.1420 c3        1 MOL      0.019803
     27 N3        -12.6730   -1.8940    0.9990 n4        1 MOL     -0.348571
     28 H8         -7.4850   -1.5660   -1.9490 hn        1 MOL      0.190921
     29 H9         -7.9400   -2.3890    0.8990 h1        1 MOL      0.089048
     30 H10        -8.3550   -4.4860    0.0460 hc        1 MOL      0.057103
     31 H11        -7.9500   -4.0990   -1.6160 hc        1 MOL      0.057103
     32 H12       -10.2260   -4.3660   -1.2510 hc        1 MOL      0.000696
     33 H13        -9.9480   -2.7300   -1.7560 hc        1 MOL      0.000696
     34 H14       -10.2400   -1.8530    0.5040 hc        1 MOL      0.035745
     35 H15       -10.5830   -3.5340    1.0580 hc        1 MOL      0.035745
     36 H16       -12.5940   -3.5700   -0.4160 hx        1 MOL      0.082358
     37 H17       -12.1780   -2.0630   -1.0520 hx        1 MOL      0.082358
     38 H18       -12.3500   -0.9580    1.1770 hn        1 MOL      0.325825
     39 H19       -13.6670   -1.8210    0.8360 hn        1 MOL      0.325825
     40 H20       -12.5150   -2.3810    1.8780 hn        1 MOL      0.325825
     41 N4         -5.0790   -2.0870   -0.2300 n         1 MOL     -0.293831
     42 C13        -3.6500   -2.1770   -0.0310 c3        1 MOL     -0.073510
     43 C14        -3.2550   -2.0480    1.4540 c         1 MOL      0.673858
     44 O6         -3.6830   -1.1130    2.1070 o         1 MOL     -0.513914
     45 C15        -2.9530   -1.0340   -0.7840 c3        1 MOL     -0.111895
     46 C16        -1.4330   -1.3240   -0.7940 c         1 MOL      0.429051
     47 O7         -0.8770   -1.9140   -1.7680 o         1 MOL     -0.644026
     48 O8         -0.7030   -0.9510    0.1780 o         1 MOL     -0.644026
     49 H21        -5.4090   -1.3030   -0.7700 hn        1 MOL      0.144382
     50 H22        -3.3300   -3.1500   -0.4010 h1        1 MOL      0.065153
     51 H23        -3.2090   -0.0980   -0.2830 hc        1 MOL      0.108343
     52 H24        -3.1720   -0.9710   -1.8450 hc        1 MOL      0.108343
     53 N5         -2.5050   -3.0090    2.0840 n         1 MOL     -0.288297
     54 C17        -2.2230   -3.2930    3.4860 c3        1 MOL     -0.141756
     55 C18        -1.6460   -2.1470    4.3040 c         1 MOL      0.479647
     56 O9         -2.1220   -1.8490    5.4290 o         1 MOL     -0.503391
     57 H25        -2.1370   -3.6670    1.4130 hn        1 MOL      0.174105
     58 H26        -1.6230   -4.2030    3.4970 h1        1 MOL      0.102242
     59 H27        -3.1650   -3.5830    3.9550 h1        1 MOL      0.102242
     60 N6         -0.5410   -1.6520    3.6990 n         1 MOL     -0.388980
     61 C19         0.1550   -0.5460    4.3280 c3        1 MOL      0.013618
     62 C20        -0.3810    0.8540    3.8920 c         1 MOL      0.367385
     63 O10         0.1930    1.8830    4.2090 o         1 MOL     -0.487688
     64 C21         1.6570   -0.6090    4.0210 c3        1 MOL     -0.090525
     65 C22         2.0940   -0.2580    2.6120 c         1 MOL      0.574067
     66 N7          1.9190    0.9370    2.0900 n         1 MOL     -0.213827
     67 O11         2.5370   -1.1610    1.8550 o         1 MOL     -0.706272
     68 H28        -0.3640   -1.8910    2.7300 hn        1 MOL      0.265956
     69 H29         0.1580   -0.6110    5.4210 h1        1 MOL      0.136375
     70 H30         2.2000   -1.5250    4.2420 hc        1 MOL      0.045960
     71 H31         2.0770    0.1530    4.6650 hc        1 MOL      0.045960
     72 H32         1.6340    1.6580    2.7450 hn        1 MOL      0.123090
     73 H33         2.1070    1.0480    1.1040 hn        1 MOL      0.123090
     74 N8         -1.5110    0.9640    3.1560 n         1 MOL     -0.179798
     75 C23        -2.0460    2.2780    2.7330 c3        1 MOL     -0.169136
     76 C24        -1.3200    2.8820    1.5580 c         1 MOL      0.457851
     77 O12        -1.3150    4.0960    1.5200 o         1 MOL     -0.528219
     78 H34        -2.1640    0.1920    3.0990 hn        1 MOL      0.207106
     79 H35        -2.0420    3.0270    3.5270 h1        1 MOL      0.126827
     80 H36        -3.1030    2.0820    2.5400 h1        1 MOL      0.126827
     81 N9         -0.7340    2.0850    0.6320 n         1 MOL     -0.181854
     82 C25        -0.1810    2.6200   -0.5760 c3        1 MOL      0.217079
     83 C26         1.1970    2.0110   -0.9120 c         1 MOL      0.383589
     84 O13         1.4720    0.8140   -0.7050 o         1 MOL     -0.419248
     85 C27        -1.2350    2.4270   -1.6870 c3        1 MOL     -0.039918
     86 C28        -2.4620    3.3710   -1.5290 ca        1 MOL     -0.017858
     87 C29        -2.4060    4.6810   -2.0210 ca        1 MOL     -0.125396
     88 C30        -3.6100    2.8130   -0.8930 ca        1 MOL     -0.125396
     89 C31        -3.5250    5.5200   -1.8140 ca        1 MOL     -0.281136
     90 C32        -4.7340    3.6930   -0.7780 ca        1 MOL     -0.281136
     91 C33        -4.6530    5.0170   -1.1040 ca        1 MOL      0.425926
     92 O14        -5.8060    5.7010   -1.0150 oh        1 MOL     -0.552284
     93 H37        -0.8680    1.0980    0.7590 hn        1 MOL      0.093660
     94 H38        -0.0790    3.6900   -0.4140 h1        1 MOL     -0.000681
     95 H39        -1.4340    1.3570   -1.6660 hc        1 MOL      0.017463
     96 H40        -0.7740    2.6820   -2.6450 hc        1 MOL      0.017463
     97 H41        -1.5390    5.1000   -2.5060 ha        1 MOL      0.125094
     98 H42        -3.6970    1.7770   -0.5930 ha        1 MOL      0.125094
     99 H43        -3.4990    6.5590   -2.0940 ha        1 MOL      0.153035
    100 H44        -5.6400    3.2950   -0.3560 ha        1 MOL      0.153035
    101 H45        -6.5170    5.1420   -0.6910 ho        1 MOL      0.409115
    102 N10         2.1070    2.8400   -1.3910 n         1 MOL     -0.556608
    103 C34         3.4820    2.5070   -1.6500 c3        1 MOL      0.346486
    104 C35         4.2940    2.3460   -0.3570 c         1 MOL      0.001809
    105 O15         4.9970    1.3680   -0.2280 o         1 MOL     -0.363671
    106 C36         4.1890    3.6540   -2.4720 c3        1 MOL      0.209832
    107 C37         3.3770    3.9880   -3.7390 c3        1 MOL      0.081203
    108 C38         5.6720    3.2940   -2.7000 c3        1 MOL     -0.132744
    109 C39         3.0690    2.8460   -4.7230 c3        1 MOL     -0.456872
    110 H46         1.8340    3.8170   -1.4560 hn        1 MOL      0.307890
    111 H47         3.5910    1.5420   -2.1390 h1        1 MOL      0.016424
    112 H48         4.1570    4.5080   -1.8000 hc        1 MOL     -0.085262
    113 H49         3.9220    4.7830   -4.2440 hc        1 MOL     -0.015631
    114 H50         2.4770    4.4800   -3.3680 hc        1 MOL     -0.015631
    115 H51         6.1890    4.1310   -3.1700 hc        1 MOL      0.044789
    116 H52         6.1710    3.2350   -1.7310 hc        1 MOL      0.044789
    117 H53         5.7370    2.3440   -3.2110 hc        1 MOL      0.044789
    118 H54         2.4110    2.0250   -4.4380 hc        1 MOL      0.131567
    119 H55         2.5970    3.4730   -5.4750 hc        1 MOL      0.131567
    120 H56         3.9260    2.3050   -5.1150 hc        1 MOL      0.131567
    121 N11         4.1140    3.2550    0.6440 n         1 MOL     -0.182385
    122 C40         4.6940    2.9080    1.9840 c3        1 MOL     -0.001907
    123 C41         6.2440    2.7620    1.9300 c         1 MOL      0.284622
    124 O16         6.8050    2.2230    2.8620 o         1 MOL     -0.410036
    125 C42         4.2120    3.8320    3.0600 c3        1 MOL      0.179050
    126 O17         2.8960    3.6350    3.2940 oh        1 MOL     -0.566371
    127 H57         3.6410    4.1320    0.5080 hn        1 MOL      0.288443
    128 H58         4.2470    1.9530    2.2450 h1        1 MOL      0.111024
    129 H59         4.4510    4.8690    2.8070 h1        1 MOL      0.025156
    130 H60         4.7760    3.5360    3.9430 h1        1 MOL      0.025156
    131 H61         2.8220    3.3220    4.2020 ho        1 MOL      0.413531
    132 N12         6.9970    3.1030    0.8090 n         1 MOL     -0.297498
    133 C43         8.3830    2.7310    0.5050 c3        1 MOL      0.358205
    134 C44         8.7150    1.2810    0.8510 c         1 MOL      0.360565
    135 O18         9.7670    1.0100    1.4420 o         1 MOL     -0.531152
    136 C45         9.3120    3.7640    1.0730 c3        1 MOL     -0.149179
    137 H62         6.5470    3.6770    0.1210 hn        1 MOL      0.165639
    138 H63         8.5700    2.7900   -0.5660 h1        1 MOL     -0.017059
    139 H64        10.3510    3.6720    0.7440 hc        1 MOL      0.032745
    140 H65         8.9040    4.7330    0.7710 hc        1 MOL      0.032745
    141 H66         9.3500    3.7930    2.1580 hc        1 MOL      0.032745
    142 N13         7.7630    0.4170    0.5820 n         1 MOL     -0.229955
    143 C46         7.6130   -1.0000    1.0040 c3        1 MOL      0.331866
    144 C47         7.2840   -1.8980   -0.2140 c         1 MOL      0.208428
    145 O19         6.7450   -1.4290   -1.1810 o         1 MOL     -0.375767
    146 C48         6.3810   -1.0250    1.9610 c3        1 MOL     -0.306172
    147 H67         6.9600    0.8010    0.1000 hn        1 MOL      0.050240
    148 H68         8.4600   -1.5160    1.4390 h1        1 MOL     -0.007890
    149 H69         6.3880   -0.1920    2.6610 hc        1 MOL      0.088803
    150 H70         5.4140   -0.8760    1.4830 hc        1 MOL      0.088803
    151 H71         6.2790   -2.0180    2.4220 hc        1 MOL      0.088803
    152 N14         7.6740   -3.2280   -0.1430 n         1 MOL     -0.298940
    153 C49         7.4830   -4.1300   -1.2970 c3        1 MOL     -0.345074
    154 C50         8.0240   -3.5300   -2.6150 c         1 MOL      0.594075
    155 O20         7.3000   -3.5240   -3.6610 o         1 MOL     -0.502327
    156 C51         5.9680   -4.5000   -1.5220 c3        1 MOL      0.113192
    157 C52         5.2140   -4.7580   -0.2520 c3        1 MOL     -0.036058
    158 C53         3.7320   -4.9050   -0.4860 c         1 MOL      0.615855
    159 O21         3.3100   -6.0140   -0.8890 o         1 MOL     -0.682191
    160 O22         2.9340   -3.9440   -0.1830 o         1 MOL     -0.682191
    161 H72         8.1770   -3.4850    0.6950 hn        1 MOL      0.300097
    162 H73         7.9130   -5.1210   -1.1810 h1        1 MOL      0.144417
    163 H74         5.8790   -5.2960   -2.2530 hc        1 MOL      0.019544
    164 H75         5.6370   -3.6070   -2.0510 hc        1 MOL      0.019544
    165 H76         5.2270   -3.8850    0.3950 hc        1 MOL      0.004666
    166 H77         5.5300   -5.5960    0.3700 hc        1 MOL      0.004666
    167 N15         9.2660   -3.0270   -2.5840 n         1 MOL     -0.383964
    168 C54        10.0090   -2.4550   -3.7940 c3        1 MOL     -0.096930
    169 H78        10.7990   -1.7860   -3.4520 h1        1 MOL      0.081698
    170 H79        10.4490   -3.2700   -4.3690 h1        1 MOL      0.081698
    171 H80         9.3110   -1.9020   -4.4210 h1        1 MOL      0.081698
    172 H81         9.6680   -2.8390   -1.6780 hn        1 MOL      0.264264
    173 Ca1         1.5080   -1.9830   -0.6480 Ca        1 MOL      1.660648
    174 O23         3.8970   -0.9930   -0.8310 oh        1 MOL     -0.801355
    175 H82         4.7260   -1.3750   -1.1010 ho        1 MOL      0.395679
    176 H83         4.1240   -0.1430   -0.4570 ho        1 MOL      0.395679
    177 O24         0.5460   -3.4600    1.4430 oh        1 MOL     -0.801355
    178 H84         0.4370   -4.2770    0.9540 ho        1 MOL      0.395679
    179 H85         0.5730   -3.7420    2.3520 ho        1 MOL      0.395679
    180 O25         0.8270   -4.2260   -2.2170 oh        1 MOL     -0.801355
    181 H86        -0.1120   -4.2500   -2.4330 ho        1 MOL      0.395679
    182 H87         0.9260   -4.8630   -1.5080 ho        1 MOL      0.395679
    183 O26         1.4100   -1.5940   -3.3250 oh        1 MOL     -0.801355
    184 H88         0.9350   -2.4150   -3.4800 ho        1 MOL      0.395679
    185 H89         1.3720   -1.1220   -4.1500 ho        1 MOL      0.395679
@<TRIPOS>BOND
     1    1    2 1   
     2    1    4 1   
     3    1    5 1   
     4    1    6 1   
     5    2    3 2   
     6    2    7 1   
     7    7    8 1   
     8    7   15 1   
     9    8    9 1   
    10    8   11 1   
    11    8   16 1   
    12    9   10 2   
    13    9   19 1   
    14   11   12 1   
    15   11   17 1   
    16   11   18 1   
    17   12   13 1   
    18   12   14 1   
    19   19   20 1   
    20   19   28 1   
    21   20   21 1   
    22   20   23 1   
    23   20   29 1   
    24   21   22 2   
    25   21   41 1   
    26   23   24 1   
    27   23   30 1   
    28   23   31 1   
    29   24   25 1   
    30   24   32 1   
    31   24   33 1   
    32   25   26 1   
    33   25   34 1   
    34   25   35 1   
    35   26   27 1   
    36   26   36 1   
    37   26   37 1   
    38   27   38 1   
    39   27   39 1   
    40   27   40 1   
    41   41   42 1   
    42   41   49 1   
    43   42   43 1   
    44   42   45 1   
    45   42   50 1   
    46   43   44 2   
    47   43   53 1   
    48   45   46 1   
    49   45   51 1   
    50   45   52 1   
    51   46   47 1   
    52   46   48 1   
    53   53   54 1   
    54   53   57 1   
    55   54   55 1   
    56   54   58 1   
    57   54   59 1   
    58   55   56 2   
    59   55   60 1   
    60   60   61 1   
    61   60   68 1   
    62   61   62 1   
    63   61   64 1   
    64   61   69 1   
    65   62   63 2   
    66   62   74 1   
    67   64   65 1   
    68   64   70 1   
    69   64   71 1   
    70   65   66 1   
    71   65   67 2   
    72   66   72 1   
    73   66   73 1   
    74   74   75 1   
    75   74   78 1   
    76   75   76 1   
    77   75   79 1   
    78   75   80 1   
    79   76   77 2   
    80   76   81 1   
    81   81   82 1   
    82   81   93 1   
    83   82   83 1   
    84   82   85 1   
    85   82   94 1   
    86   83   84 2   
    87   83  102 1   
    88   85   86 1   
    89   85   95 1   
    90   85   96 1   
    91   86   87 ar  
    92   86   88 ar  
    93   87   89 ar  
    94   87   97 1   
    95   88   90 ar  
    96   88   98 1   
    97   89   91 ar  
    98   89   99 1   
    99   90   91 ar  
   100   90  100 1   
   101   91   92 1   
   102   92  101 1   
   103  102  103 1   
   104  102  110 1   
   105  103  104 1   
   106  103  106 1   
   107  103  111 1   
   108  104  105 2   
   109  104  121 1   
   110  106  107 1   
   111  106  108 1   
   112  106  112 1   
   113  107  109 1   
   114  107  113 1   
   115  107  114 1   
   116  108  115 1   
   117  108  116 1   
   118  108  117 1   
   119  109  118 1   
   120  109  119 1   
   121  109  120 1   
   122  121  122 1   
   123  121  127 1   
   124  122  123 1   
   125  122  125 1   
   126  122  128 1   
   127  123  124 2   
   128  123  132 1   
   129  125  126 1   
   130  125  129 1   
   131  125  130 1   
   132  126  131 1   
   133  132  133 1   
   134  132  137 1   
   135  133  134 1   
   136  133  136 1   
   137  133  138 1   
   138  134  135 2   
   139  134  142 1   
   140  136  139 1   
   141  136  140 1   
   142  136  141 1   
   143  142  143 1   
   144  142  147 1   
   145  143  144 1   
   146  143  146 1   
   147  143  148 1   
   148  144  145 2   
   149  144  152 1   
   150  146  149 1   
   151  146  150 1   
   152  146  151 1   
   153  152  153 1   
   154  152  161 1   
   155  153  154 1   
   156  153  156 1   
   157  153  162 1   
   158  154  155 2   
   159  154  167 1   
   160  156  157 1   
   161  156  163 1   
   162  156  164 1   
   163  157  158 1   
   164  157  165 1   
   165  157  166 1   
   166  158  159 1   
   167  158  160 1   
   168  167  168 1   
   169  167  172 1   
   170  168  169 1   
   171  168  170 1   
   172  168  171 1   
   173  174  175 1   
   174  174  176 1   
   175  177  178 1   
   176  177  179 1   
   177  180  181 1   
   178  180  182 1   
   179  183  184 1   
   180  183  185 1   
@<TRIPOS>SUBSTRUCTURE
     1 MOL         1 TEMP              0 ****  ****    0 ROOT
