@<TRIPOS>MOLECULE
MOL
  189   185     1     0     0
SMALL
resp


@<TRIPOS>ATOM
      1 C1          8.8410    0.9190    1.8680 c3        1 MOL     -0.540457
      2 C2          7.8150    0.6120    0.8270 c         1 MOL      0.776807
      3 O1          6.6220    0.4520    1.0840 o         1 MOL     -0.697967
      4 H1          8.3540    1.0230    2.8380 hc        1 MOL      0.139903
      5 H2          9.5690    0.1080    1.9110 hc        1 MOL      0.139903
      6 H3          9.3490    1.8500    1.6150 hc        1 MOL      0.139903
      7 N1          8.3530    0.5140   -0.3980 n         1 MOL     -0.520316
      8 C3          7.5160    0.1010   -1.5150 c3        1 MOL      0.142772
      9 C4          7.0970   -1.3710   -1.4590 c         1 MOL      0.404106
     10 O2          7.3510   -2.0480   -2.4080 o         1 MOL     -0.415579
     11 C5          8.0370    0.6370   -2.8240 c3        1 MOL     -0.396235
     12 C6          9.4260    0.0530   -3.1180 c         1 MOL      0.751703
     13 O3          9.6650   -0.5000   -4.1830 o         1 MOL     -0.643316
     14 O4         10.3680    0.0990   -2.2830 o         1 MOL     -0.643316
     15 H4          9.3210    0.7740   -0.5500 hn        1 MOL      0.245045
     16 H5          6.5680    0.6030   -1.3380 h1        1 MOL      0.078174
     17 H6          8.1270    1.7170   -2.7500 hc        1 MOL      0.137610
     18 H7          7.3330    0.3590   -3.6130 hc        1 MOL      0.137610
     19 N2          6.4000   -1.8850   -0.3510 n         1 MOL     -0.248257
     20 C7          5.9610   -3.2660   -0.0540 c3        1 MOL      0.112862
     21 C8          4.5930   -3.6220   -0.5530 c         1 MOL      0.532835
     22 O5          4.4540   -4.4810   -1.4180 o         1 MOL     -0.521762
     23 C9          6.2450   -3.6410    1.4560 c3        1 MOL     -0.126437
     24 C10         7.7370   -3.8580    1.6600 c3        1 MOL      0.149922
     25 C11         8.0110   -4.2900    3.1140 c3        1 MOL     -0.088248
     26 C12         9.5460   -4.2840    3.1480 c3        1 MOL      0.173623
     27 N3         10.1940   -5.2180    4.1250 n4        1 MOL     -0.326183
     28 H8          6.3090   -1.1630    0.3490 hn        1 MOL      0.225794
     29 H9          6.6460   -3.9480   -0.5770 h1        1 MOL      0.005757
     30 H10         5.6470   -4.5070    1.7340 hc        1 MOL      0.029943
     31 H11         5.9450   -2.9190    2.2130 hc        1 MOL      0.029943
     32 H12         8.1910   -2.9120    1.3340 hc        1 MOL     -0.008003
     33 H13         8.1160   -4.6480    1.0190 hc        1 MOL     -0.008003
     34 H14         7.6550   -5.3090    3.2570 hc        1 MOL      0.035823
     35 H15         7.6660   -3.5400    3.8230 hc        1 MOL      0.035823
     36 H16         9.8600   -3.2440    3.2790 hx        1 MOL      0.026491
     37 H17         9.7970   -4.5890    2.1320 hx        1 MOL      0.026491
     38 H18        11.2060   -5.1920    4.0560 hn        1 MOL      0.255757
     39 H19         9.8040   -5.0900    5.0460 hn        1 MOL      0.255757
     40 H20        10.0630   -6.1910    3.8790 hn        1 MOL      0.255757
     41 N4          3.4970   -2.8680   -0.0890 n         1 MOL     -0.581088
     42 C13         3.4380   -1.8070    0.8650 c3        1 MOL      0.283703
     43 C14         3.2310   -0.4390    0.2120 c         1 MOL      0.053401
     44 O6          2.8190   -0.2780   -0.9410 o         1 MOL     -0.312059
     45 C15         2.3310   -2.1810    1.8840 c3        1 MOL     -0.482825
     46 C16         1.0130   -2.5000    1.2240 c         1 MOL      0.753119
     47 O7          0.6690   -1.8710    0.2190 o         1 MOL     -0.680814
     48 O8          0.2190   -3.2790    1.7630 o         1 MOL     -0.680814
     49 H21         2.6890   -3.0820   -0.6610 hn        1 MOL      0.407155
     50 H22         4.3800   -1.7830    1.4170 h1        1 MOL      0.044590
     51 H23         2.1640   -1.3910    2.6120 hc        1 MOL      0.120323
     52 H24         2.6260   -3.0490    2.4670 hc        1 MOL      0.120323
     53 N5          3.4900    0.5970    1.0030 n         1 MOL     -0.211042
     54 C17         3.8510    1.8880    0.4560 c3        1 MOL     -0.020179
     55 C18         2.6970    2.6330   -0.1910 c         1 MOL      0.480668
     56 O9          1.5110    2.2710   -0.1120 o         1 MOL     -0.623085
     57 H25         3.6270    0.3420    1.9710 hn        1 MOL      0.254121
     58 H26         4.6290    1.7700   -0.2900 h1        1 MOL      0.097238
     59 H27         4.3100    2.5180    1.2220 h1        1 MOL      0.097238
     60 N6          3.0590    3.7030   -0.8470 n         1 MOL     -0.442432
     61 C19         2.0430    4.4580   -1.5990 c3        1 MOL      0.356412
     62 C20         2.1560    5.9490   -1.3680 c         1 MOL      0.352728
     63 O10         3.2030    6.5200   -0.9580 o         1 MOL     -0.527826
     64 C21         2.0210    4.1140   -3.0890 c3        1 MOL     -0.161199
     65 C22         2.1240    2.5950   -3.3060 c         1 MOL      0.699922
     66 O11         1.1510    1.8520   -2.9820 o         1 MOL     -0.702452
     67 O12         3.1470    2.0940   -3.7430 o         1 MOL     -0.702452
     68 H28         4.0000    4.0280   -0.9420 hn        1 MOL      0.272921
     69 H29         1.0970    4.1750   -1.1280 h1        1 MOL      0.010072
     70 H30         2.7700    4.6850   -3.6440 hc        1 MOL      0.024991
     71 H31         1.0450    4.4180   -3.4710 hc        1 MOL      0.024991
     72 N7          1.1170    6.7300   -1.6250 n         1 MOL     -0.443114
     73 C23        -0.2950    6.3850   -1.5980 c3        1 MOL     -0.049328
     74 C24        -0.7950    5.7960   -0.2890 c         1 MOL      0.531541
     75 O13        -0.0710    5.8670    0.7610 o         1 MOL     -0.479280
     76 H32         1.3790    7.7040   -1.6510 hn        1 MOL      0.328893
     77 H33        -0.4020    5.6150   -2.3650 h1        1 MOL      0.062354
     78 H34        -0.8580    7.2650   -1.9100 h1        1 MOL      0.062354
     79 N8         -1.9370    5.1630   -0.3240 n         1 MOL     -0.351533
     80 C25        -2.8440    4.8760    0.8290 c3        1 MOL     -0.285311
     81 C26        -2.5760    3.6910    1.7440 c         1 MOL      0.732043
     82 O14        -3.4900    2.9570    2.0790 o         1 MOL     -0.597349
     83 C27        -4.3580    4.8740    0.2450 c3        1 MOL      0.523377
     84 C28        -4.6170    3.8780   -0.8950 c3        1 MOL     -0.219439
     85 O15        -4.7480    6.1610   -0.2660 oh        1 MOL     -0.635642
     86 H35        -2.4010    4.9590   -1.2030 hn        1 MOL      0.223591
     87 H36        -2.7230    5.7600    1.4630 h1        1 MOL      0.102435
     88 H37        -4.9970    4.7960    1.1220 h1        1 MOL      0.017971
     89 H38        -4.1230    6.3770   -0.9690 ho        1 MOL      0.353070
     90 H39        -4.5900    2.8650   -0.4910 hc        1 MOL      0.052544
     91 H40        -5.5980    4.1720   -1.2860 hc        1 MOL      0.052544
     92 H41        -3.8690    3.9380   -1.6830 hc        1 MOL      0.052544
     93 N9         -1.3120    3.3440    1.9790 n         1 MOL     -0.501479
     94 C29        -0.8330    2.2740    2.8660 c3        1 MOL     -0.024687
     95 C30        -1.0900    0.9400    2.2770 c         1 MOL      0.151672
     96 O16        -0.5160    0.5130    1.2570 o         1 MOL     -0.269754
     97 C31         0.6340    2.4640    3.3630 c3        1 MOL     -0.083993
     98 C32         0.8440    3.8000    4.1820 c3        1 MOL      0.037087
     99 C33         1.0940    1.2640    4.2810 c3        1 MOL     -0.317684
    100 C34        -0.1720    4.1330    5.2980 c3        1 MOL     -0.189877
    101 H42        -0.5920    3.7730    1.4150 hn        1 MOL      0.372907
    102 H43        -1.5040    2.3120    3.7250 h1        1 MOL      0.081167
    103 H44         1.3110    2.5950    2.5180 hc        1 MOL      0.075338
    104 H45         0.7420    4.6620    3.5230 hc        1 MOL      0.023569
    105 H46         1.8450    3.8420    4.6230 hc        1 MOL      0.023569
    106 H47         1.9650    1.4270    4.9030 hc        1 MOL      0.101320
    107 H48         0.3020    1.0490    4.9920 hc        1 MOL      0.101320
    108 H49         1.2240    0.3750    3.6610 hc        1 MOL      0.101320
    109 H50        -1.1910    4.2980    4.9700 hc        1 MOL      0.049036
    110 H51        -0.0850    3.3260    6.0300 hc        1 MOL      0.049036
    111 H52         0.0910    5.0440    5.8280 hc        1 MOL      0.049036
    112 N10        -2.0430    0.2500    2.8820 n         1 MOL      0.121514
    113 C35        -2.4910   -1.1550    2.5630 c3        1 MOL     -0.538079
    114 C36        -4.0140   -1.2680    2.0840 c         1 MOL      0.590973
    115 O17        -4.4160   -2.3720    1.7030 o         1 MOL     -0.579771
    116 C37        -2.1900   -2.1300    3.6580 c3        1 MOL      0.493981
    117 C38        -2.7920   -1.6630    5.0130 c3        1 MOL     -0.202927
    118 O18        -0.8890   -2.4400    3.9080 oh        1 MOL     -0.674233
    119 H53        -2.4770    0.5740    3.7380 hn        1 MOL      0.154593
    120 H54        -1.9750   -1.3700    1.6290 h1        1 MOL      0.251975
    121 H55        -2.6010   -3.1010    3.3850 h1        1 MOL     -0.010486
    122 H56        -0.4970   -2.6970    3.0720 ho        1 MOL      0.426969
    123 H57        -2.3310   -0.7180    5.3070 hc        1 MOL      0.035275
    124 H58        -3.8430   -1.4810    4.8100 hc        1 MOL      0.035275
    125 H59        -2.6870   -2.3490    5.8510 hc        1 MOL      0.035275
    126 N11        -4.8210   -0.1750    2.0700 n         1 MOL     -0.233974
    127 C39        -6.2430   -0.1800    1.7390 c3        1 MOL     -0.048307
    128 C40        -6.4680   -0.7730    0.3400 c         1 MOL      0.491508
    129 O19        -6.0270   -0.2020   -0.7000 o         1 MOL     -0.500940
    130 C41        -6.8240    1.2170    1.7430 c3        1 MOL      0.227944
    131 C42        -8.2270    1.3890    1.2410 c3        1 MOL     -0.231560
    132 O20        -6.8920    1.6630    3.0380 oh        1 MOL     -0.651524
    133 H60        -4.3670    0.7310    2.1510 hn        1 MOL      0.206169
    134 H61        -6.6600   -0.8770    2.4720 h1        1 MOL      0.102865
    135 H62        -6.1200    1.8910    1.2600 h1        1 MOL      0.014208
    136 H63        -7.3040    2.5190    3.0600 ho        1 MOL      0.425623
    137 H64        -8.8400    2.0620    1.8550 hc        1 MOL      0.067501
    138 H65        -8.2610    1.7690    0.2210 hc        1 MOL      0.067501
    139 H66        -8.7690    0.4480    1.2290 hc        1 MOL      0.067501
    140 N12        -7.0480   -2.0100    0.2340 n         1 MOL     -0.298893
    141 C43        -7.1750   -2.8850   -0.9830 c3        1 MOL      0.277002
    142 C44        -5.9730   -2.7480   -1.9450 c         1 MOL      0.460611
    143 O21        -6.2070   -2.3100   -3.0680 o         1 MOL     -0.500257
    144 C45        -8.5420   -2.6760   -1.6840 c3        1 MOL     -0.345920
    145 C46        -9.7060   -2.7520   -0.7100 c3        1 MOL      0.115855
    146 C47       -11.0240   -2.6960   -1.5650 c3        1 MOL     -0.027094
    147 C48       -12.2310   -2.8500   -0.7050 c3        1 MOL      0.056727
    148 N13       -12.8490   -4.2030   -0.7750 n4        1 MOL     -0.356797
    149 H67        -7.3880   -2.3960    1.1110 hn        1 MOL      0.154019
    150 H68        -7.1000   -3.9090   -0.6290 h1        1 MOL      0.011045
    151 H69        -8.6880   -3.3770   -2.5020 hc        1 MOL      0.103241
    152 H70        -8.6180   -1.6680   -2.1110 hc        1 MOL      0.103241
    153 H71        -9.5940   -1.8570   -0.1060 hc        1 MOL     -0.022724
    154 H72        -9.6570   -3.6950   -0.1670 hc        1 MOL     -0.022724
    155 H73       -10.8700   -3.4690   -2.3160 hc        1 MOL      0.053269
    156 H74       -11.1590   -1.6900   -1.9670 hc        1 MOL      0.053269
    157 H75       -12.9460   -2.1750   -1.1660 hx        1 MOL      0.066692
    158 H76       -11.9670   -2.5370    0.2990 hx        1 MOL      0.066692
    159 H77       -13.5630   -4.2340   -0.0520 hn        1 MOL      0.290979
    160 H78       -13.2910   -4.4050   -1.6580 hn        1 MOL      0.290979
    161 H79       -12.2560   -4.9870   -0.5300 hn        1 MOL      0.290979
    162 N14        -4.7710   -3.1530   -1.4520 n         1 MOL     -0.677972
    163 C49        -3.5300   -2.5820   -2.1100 c3        1 MOL      0.620156
    164 C50        -2.5340   -2.3110   -1.0120 c         1 MOL      0.246229
    165 O22        -2.2690   -1.1850   -0.8110 o         1 MOL     -0.606127
    166 C51        -3.0160   -3.4210   -3.3220 c3        1 MOL     -0.345706
    167 C52        -1.6280   -2.9760   -3.8050 c3        1 MOL      0.121212
    168 C53        -1.4850   -1.5600   -4.2790 c         1 MOL      0.553154
    169 O23        -1.7040   -1.1690   -5.4390 o         1 MOL     -0.628051
    170 O24        -1.1590   -0.8010   -3.3830 o         1 MOL     -0.628051
    171 H80        -4.7350   -3.3570   -0.4680 hn        1 MOL      0.326087
    172 H81        -3.7480   -1.6080   -2.5280 h1        1 MOL      0.038848
    173 H82        -3.7380   -3.2640   -4.1250 hc        1 MOL      0.073511
    174 H83        -3.0490   -4.4790   -3.0680 hc        1 MOL      0.073511
    175 H84        -1.3340   -3.5770   -4.6700 hc        1 MOL     -0.036126
    176 H85        -0.8460   -3.1160   -3.0550 hc        1 MOL     -0.036126
    177 N15        -1.9810   -3.2440   -0.2740 n         1 MOL     -0.215685
    178 C54        -2.2330   -4.7160   -0.3410 c3        1 MOL     -0.210995
    179 H86        -1.4100   -5.2020   -0.8640 h1        1 MOL      0.079864
    180 H87        -2.3090   -5.1180    0.6680 h1        1 MOL      0.079864
    181 H88        -3.1640   -4.9020   -0.8770 h1        1 MOL      0.079864
    182 H89        -1.2420   -3.0420    0.3860 hn        1 MOL      0.306524
    183 Ca1         0.2660   -0.0540   -1.4450 Ca        1 MOL      1.658549
    184 O25         1.5850   -2.0170   -2.7320 oh        1 MOL     -0.899552
    185 H90         1.3170   -2.8150   -3.1900 ho        1 MOL      0.427669
    186 H91         1.7910   -1.3890   -3.4190 ho        1 MOL      0.427669
    187 O26        -1.7720    1.6850   -2.1200 oh        1 MOL     -0.899552
    188 H92        -1.8350    2.4400   -2.7070 ho        1 MOL      0.427669
    189 H93        -2.5960    1.2250   -2.2310 ho        1 MOL      0.427669
@<TRIPOS>BOND
     1    1    2 1   
     2    1    4 1   
     3    1    5 1   
     4    1    6 1   
     5    2    3 2   
     6    2    7 1   
     7    7    8 1   
     8    7   15 1   
     9    8    9 1   
    10    8   11 1   
    11    8   16 1   
    12    9   10 2   
    13    9   19 1   
    14   11   12 1   
    15   11   17 1   
    16   11   18 1   
    17   12   13 1   
    18   12   14 1   
    19   19   20 1   
    20   19   28 1   
    21   20   21 1   
    22   20   23 1   
    23   20   29 1   
    24   21   22 2   
    25   21   41 1   
    26   23   24 1   
    27   23   30 1   
    28   23   31 1   
    29   24   25 1   
    30   24   32 1   
    31   24   33 1   
    32   25   26 1   
    33   25   34 1   
    34   25   35 1   
    35   26   27 1   
    36   26   36 1   
    37   26   37 1   
    38   27   38 1   
    39   27   39 1   
    40   27   40 1   
    41   41   42 1   
    42   41   49 1   
    43   42   43 1   
    44   42   45 1   
    45   42   50 1   
    46   43   44 2   
    47   43   53 1   
    48   45   46 1   
    49   45   51 1   
    50   45   52 1   
    51   46   47 1   
    52   46   48 1   
    53   53   54 1   
    54   53   57 1   
    55   54   55 1   
    56   54   58 1   
    57   54   59 1   
    58   55   56 2   
    59   55   60 1   
    60   60   61 1   
    61   60   68 1   
    62   61   62 1   
    63   61   64 1   
    64   61   69 1   
    65   62   63 2   
    66   62   72 1   
    67   64   65 1   
    68   64   70 1   
    69   64   71 1   
    70   65   66 1   
    71   65   67 1   
    72   72   73 1   
    73   72   76 1   
    74   73   74 1   
    75   73   77 1   
    76   73   78 1   
    77   74   75 2   
    78   74   79 1   
    79   79   80 1   
    80   79   86 1   
    81   80   81 1   
    82   80   83 1   
    83   80   87 1   
    84   81   82 2   
    85   81   93 1   
    86   83   84 1   
    87   83   85 1   
    88   83   88 1   
    89   84   90 1   
    90   84   91 1   
    91   84   92 1   
    92   85   89 1   
    93   93   94 1   
    94   93  101 1   
    95   94   95 1   
    96   94   97 1   
    97   94  102 1   
    98   95   96 2   
    99   95  112 1   
   100   97   98 1   
   101   97   99 1   
   102   97  103 1   
   103   98  100 1   
   104   98  104 1   
   105   98  105 1   
   106   99  106 1   
   107   99  107 1   
   108   99  108 1   
   109  100  109 1   
   110  100  110 1   
   111  100  111 1   
   112  112  113 1   
   113  112  119 1   
   114  113  114 1   
   115  113  116 1   
   116  113  120 1   
   117  114  115 2   
   118  114  126 1   
   119  116  117 1   
   120  116  118 1   
   121  116  121 1   
   122  117  123 1   
   123  117  124 1   
   124  117  125 1   
   125  118  122 1   
   126  126  127 1   
   127  126  133 1   
   128  127  128 1   
   129  127  130 1   
   130  127  134 1   
   131  128  129 2   
   132  128  140 1   
   133  130  131 1   
   134  130  132 1   
   135  130  135 1   
   136  131  137 1   
   137  131  138 1   
   138  131  139 1   
   139  132  136 1   
   140  140  141 1   
   141  140  149 1   
   142  141  142 1   
   143  141  144 1   
   144  141  150 1   
   145  142  143 2   
   146  142  162 1   
   147  144  145 1   
   148  144  151 1   
   149  144  152 1   
   150  145  146 1   
   151  145  153 1   
   152  145  154 1   
   153  146  147 1   
   154  146  155 1   
   155  146  156 1   
   156  147  148 1   
   157  147  157 1   
   158  147  158 1   
   159  148  159 1   
   160  148  160 1   
   161  148  161 1   
   162  162  163 1   
   163  162  171 1   
   164  163  164 1   
   165  163  166 1   
   166  163  172 1   
   167  164  165 2   
   168  164  177 1   
   169  166  167 1   
   170  166  173 1   
   171  166  174 1   
   172  167  168 1   
   173  167  175 1   
   174  167  176 1   
   175  168  169 1   
   176  168  170 1   
   177  177  178 1   
   178  177  182 1   
   179  178  179 1   
   180  178  180 1   
   181  178  181 1   
   182  184  185 1   
   183  184  186 1   
   184  187  188 1   
   185  187  189 1   
@<TRIPOS>SUBSTRUCTURE
     1 MOL         1 TEMP              0 ****  ****    0 ROOT
