@<TRIPOS>MOLECULE
MOL
  191   184     1     0     0
SMALL
resp


@<TRIPOS>ATOM
      1 C1         -6.4880   -1.9060    3.3160 c3        1 MOL     -0.470403
      2 C2         -6.3820   -1.6380    1.8040 c         1 MOL      0.737844
      3 O1         -5.6430   -0.8020    1.2890 o         1 MOL     -0.622073
      4 H1         -6.8980   -2.9030    3.4800 hc        1 MOL      0.124332
      5 H2         -5.4980   -1.8420    3.7670 hc        1 MOL      0.124332
      6 H3         -7.1440   -1.1640    3.7710 hc        1 MOL      0.124332
      7 N1         -7.2910   -2.3170    1.0540 n         1 MOL     -0.610717
      8 C3         -7.3950   -2.2560   -0.4220 c3        1 MOL     -0.016349
      9 C4         -7.5720   -0.8580   -1.0400 c         1 MOL      0.366681
     10 O2         -7.5740   -0.7030   -2.2770 o         1 MOL     -0.520945
     11 C5         -6.3310   -3.1380   -1.1220 c3        1 MOL      0.027136
     12 C6         -6.2310   -4.5430   -0.5650 c         1 MOL      0.611481
     13 O3         -7.0910   -5.0510    0.1780 o         1 MOL     -0.628993
     14 O4         -5.3300   -5.2470   -1.0930 o         1 MOL     -0.628993
     15 H4         -7.7900   -3.0120    1.5980 hn        1 MOL      0.302142
     16 H5         -8.3270   -2.7430   -0.7250 h1        1 MOL      0.101728
     17 H6         -5.3800   -2.6070   -1.1620 hc        1 MOL      0.042171
     18 H7         -6.6460   -3.1860   -2.1660 hc        1 MOL      0.042171
     19 N2         -7.7670    0.1650   -0.2470 n         1 MOL     -0.133977
     20 C7         -8.0020    1.6100   -0.5480 c3        1 MOL     -0.195893
     21 C8         -6.7050    2.4250   -0.6830 c         1 MOL      0.642131
     22 O5         -6.7670    3.5720   -1.1120 o         1 MOL     -0.580286
     23 C9         -8.9690    2.1370    0.5540 c3        1 MOL     -0.004586
     24 C10       -10.2960    1.3170    0.7210 c3        1 MOL     -0.007383
     25 C11       -11.1870    1.7190    1.9300 c3        1 MOL     -0.064406
     26 C12       -12.4100    0.8170    2.0090 c3        1 MOL      0.001363
     27 N3        -13.1980    1.1430    3.1720 n4        1 MOL     -0.145336
     28 H8         -7.6850   -0.0660    0.7330 hn        1 MOL      0.187758
     29 H9         -8.5480    1.5960   -1.4880 h1        1 MOL      0.153348
     30 H10        -9.2890    3.1680    0.4210 hc        1 MOL      0.032888
     31 H11        -8.5300    2.1270    1.5500 hc        1 MOL      0.032888
     32 H12       -10.1530    0.2420    0.8060 hc        1 MOL      0.017828
     33 H13       -10.9090    1.4130   -0.1840 hc        1 MOL      0.017828
     34 H14       -11.4710    2.7660    1.8140 hc        1 MOL      0.036353
     35 H15       -10.6500    1.6700    2.8760 hc        1 MOL      0.036353
     36 H16       -12.1560   -0.2470    2.0570 hx        1 MOL      0.090988
     37 H17       -13.0170    1.0350    1.1360 hx        1 MOL      0.090988
     38 H18       -14.0850    0.6740    3.2630 hn        1 MOL      0.221991
     39 H19       -12.7150    0.9110    4.0320 hn        1 MOL      0.221991
     40 H20       -13.3630    2.1450    3.1590 hn        1 MOL      0.221991
     41 N4         -5.5620    1.8220   -0.3200 n         1 MOL     -0.438397
     42 C13        -4.2220    2.3840   -0.4910 c3        1 MOL     -0.078983
     43 C14        -3.8570    2.4510   -2.0030 c         1 MOL      0.663653
     44 O6         -3.9580    1.4480   -2.7110 o         1 MOL     -0.488071
     45 C15        -3.2000    1.5980    0.4250 c3        1 MOL      0.082098
     46 C16        -1.8520    2.2290    0.4630 c         1 MOL      0.612218
     47 O7         -1.2640    2.4340    1.5390 o         1 MOL     -0.709745
     48 O8         -1.3520    2.6540   -0.5910 o         1 MOL     -0.709745
     49 H21        -5.7200    0.8560   -0.0540 hn        1 MOL      0.266250
     50 H22        -4.3890    3.3910   -0.1170 h1        1 MOL      0.047743
     51 H23        -3.0520    0.6320   -0.0510 hc        1 MOL      0.010794
     52 H24        -3.5360    1.4320    1.4510 hc        1 MOL      0.010794
     53 N5         -3.3250    3.5760   -2.4430 n         1 MOL     -0.490399
     54 C17        -2.8260    3.6600   -3.8160 c3        1 MOL     -0.028089
     55 C18        -1.6880    2.7300   -4.2270 c         1 MOL      0.384732
     56 O9         -1.5100    2.5660   -5.4150 o         1 MOL     -0.507162
     57 H25        -2.9400    4.1550   -1.7110 hn        1 MOL      0.248472
     58 H26        -2.5600    4.6900   -4.0430 h1        1 MOL      0.093709
     59 H27        -3.6200    3.4290   -4.5220 h1        1 MOL      0.093709
     60 N6         -0.8720    2.2040   -3.2950 n         1 MOL     -0.098986
     61 C19         0.1560    1.2870   -3.6410 c3        1 MOL     -0.230145
     62 C20        -0.3950   -0.1920   -3.8040 c         1 MOL      0.478488
     63 O10         0.2920   -1.0180   -4.4280 o         1 MOL     -0.527360
     64 C21         1.3620    1.2170   -2.7170 c3        1 MOL     -0.135290
     65 C22         2.0090    2.5610   -2.4430 c         1 MOL      0.498342
     66 N7          3.1190    2.7640   -3.1670 n         1 MOL     -0.662146
     67 O11         1.6890    3.3400   -1.5780 o         1 MOL     -0.527266
     68 H28        -0.8640    2.5470   -2.3480 hn        1 MOL      0.234907
     69 H29         0.4730    1.5820   -4.6450 h1        1 MOL      0.130159
     70 H30         2.1260    0.6150   -3.2150 hc        1 MOL      0.118961
     71 H31         1.1120    0.7360   -1.7710 hc        1 MOL      0.118961
     72 H32         3.3370    2.2100   -3.9810 hn        1 MOL      0.346224
     73 H33         3.6110    3.5870   -2.8620 hn        1 MOL      0.346224
     74 N8         -1.5720   -0.5680   -3.2980 n         1 MOL     -0.128436
     75 C23        -2.1980   -1.8760   -3.3380 c3        1 MOL      0.038626
     76 C24        -2.0270   -2.7680   -2.1230 c         1 MOL      0.307949
     77 O12        -2.1270   -3.9870   -2.2310 o         1 MOL     -0.410417
     78 H34        -2.2270    0.1110   -2.9260 hn        1 MOL      0.100646
     79 H35        -1.9050   -2.4170   -4.2340 h1        1 MOL      0.071526
     80 H36        -3.2730   -1.7690   -3.5150 h1        1 MOL      0.071526
     81 N9         -1.8820   -2.0960   -0.9470 n         1 MOL     -0.283181
     82 C25        -1.3800   -2.6180    0.3150 c3        1 MOL      0.145800
     83 C26         0.0490   -2.1900    0.5550 c         1 MOL      0.332820
     84 O13         0.3670   -1.0420    0.3810 o         1 MOL     -0.545914
     85 C27        -2.2980   -2.3690    1.4860 c3        1 MOL     -0.024253
     86 C28        -1.6940   -2.6430    2.8640 ca        1 MOL      0.006976
     87 C29        -1.6320   -3.9380    3.4590 ca        1 MOL     -0.098294
     88 C30        -1.4160   -1.5320    3.6380 ca        1 MOL     -0.098294
     89 C31        -1.2930   -4.0400    4.8160 ca        1 MOL     -0.300930
     90 C32        -1.0320   -1.6610    4.9870 ca        1 MOL     -0.300930
     91 C33        -0.9110   -2.9280    5.5680 ca        1 MOL      0.325290
     92 O14        -0.5520   -3.1580    6.8240 oh        1 MOL     -0.453005
     93 H37        -1.7540   -1.1010   -0.9710 hn        1 MOL      0.166458
     94 H38        -1.3540   -3.6760    0.0660 h1        1 MOL      0.022871
     95 H39        -3.1950   -2.9650    1.3020 hc        1 MOL      0.059223
     96 H40        -2.7030   -1.3610    1.5280 hc        1 MOL      0.059223
     97 H41        -1.7550   -4.8670    2.9210 ha        1 MOL      0.119657
     98 H42        -1.3950   -0.5400    3.2060 ha        1 MOL      0.119657
     99 H43        -1.4070   -4.9580    5.3620 ha        1 MOL      0.153006
    100 H44        -0.8800   -0.7510    5.5560 ha        1 MOL      0.153006
    101 H45        -0.5190   -2.3090    7.2720 ho        1 MOL      0.355519
    102 N10         0.9660   -3.0740    0.9900 n         1 MOL     -0.186142
    103 C34         2.3900   -2.7330    0.9840 c3        1 MOL      0.146991
    104 C35         2.9570   -2.4340   -0.4330 c         1 MOL      0.220010
    105 O15         3.7690   -1.5090   -0.5830 o         1 MOL     -0.506836
    106 C36         3.1500   -3.8730    1.7170 c3        1 MOL      0.073940
    107 C37         3.2120   -3.6880    3.2790 c3        1 MOL     -0.227327
    108 C38         4.5580   -4.0580    1.1950 c3        1 MOL      0.079430
    109 C39         1.8460   -3.6840    3.9030 c3        1 MOL     -0.159213
    110 H46         0.6930   -4.0310    1.1430 hn        1 MOL      0.195243
    111 H47         2.5770   -1.8370    1.5770 h1        1 MOL      0.030075
    112 H48         2.6340   -4.7970    1.4900 hc        1 MOL     -0.016842
    113 H49         3.8480   -2.8800    3.6420 hc        1 MOL      0.087856
    114 H50         3.6770   -4.5410    3.7840 hc        1 MOL      0.087856
    115 H51         5.1320   -4.8060    1.7390 hc        1 MOL     -0.020904
    116 H52         4.4370   -4.4940    0.2030 hc        1 MOL     -0.020904
    117 H53         5.0100   -3.0650    1.1400 hc        1 MOL     -0.020904
    118 H54         1.9410   -3.8240    4.9780 hc        1 MOL      0.059301
    119 H55         1.2860   -2.7810    3.6560 hc        1 MOL      0.059301
    120 H56         1.1940   -4.4820    3.5640 hc        1 MOL      0.059301
    121 N11         2.5780   -3.0820   -1.5400 n         1 MOL     -0.087415
    122 C40         2.9900   -2.7840   -2.8850 c3        1 MOL     -0.063006
    123 C41         4.5230   -3.0400   -3.1060 c         1 MOL      0.317212
    124 O16         5.0140   -2.6130   -4.1370 o         1 MOL     -0.481438
    125 C42         2.2650   -3.6390   -3.7810 c3        1 MOL     -0.016629
    126 O17         0.8310   -3.5060   -3.5860 oh        1 MOL     -0.565655
    127 H57         1.9780   -3.8830   -1.4000 hn        1 MOL      0.204063
    128 H58         2.8360   -1.7180   -3.0610 h1        1 MOL      0.135168
    129 H59         2.4730   -4.6880   -3.5760 h1        1 MOL      0.110654
    130 H60         2.4840   -3.3350   -4.8070 h1        1 MOL      0.110654
    131 H61         0.6750   -2.6290   -3.9540 ho        1 MOL      0.380620
    132 N12         5.2350   -3.6490   -2.1550 n         1 MOL     -0.298614
    133 C43         6.6410   -3.6200   -1.7400 c3        1 MOL      0.319326
    134 C44         7.3190   -2.2160   -1.9260 c         1 MOL      0.418755
    135 O18         8.4970   -2.1430   -2.2210 o         1 MOL     -0.535902
    136 C45         7.3400   -4.7150   -2.5620 c3        1 MOL     -0.294041
    137 H62         4.6100   -4.1680   -1.5520 hn        1 MOL      0.148881
    138 H63         6.7200   -3.8270   -0.6800 h1        1 MOL     -0.008357
    139 H64         7.4270   -4.4570   -3.6140 hc        1 MOL      0.075806
    140 H65         8.3720   -4.7430   -2.1980 hc        1 MOL      0.075806
    141 H66         6.8710   -5.6870   -2.3970 hc        1 MOL      0.075806
    142 N13         6.5790   -1.1850   -1.7790 n         1 MOL     -0.348989
    143 C46         7.1420    0.1540   -1.4370 c3        1 MOL      0.224390
    144 C47         7.3900    0.2680    0.0900 c         1 MOL      0.430231
    145 O19         6.7130   -0.3640    0.8530 o         1 MOL     -0.444564
    146 C48         6.0810    1.2010   -1.9240 c3        1 MOL     -0.259874
    147 H67         5.6020   -1.2970   -1.5560 hn        1 MOL      0.256199
    148 H68         8.0610    0.2690   -2.0090 h1        1 MOL      0.021758
    149 H69         5.9970    1.9620   -1.1500 hc        1 MOL      0.064033
    150 H70         6.4790    1.8080   -2.7430 hc        1 MOL      0.064033
    151 H71         5.1330    0.6940   -2.1050 hc        1 MOL      0.064033
    152 N14         8.3310    1.1730    0.3570 n         1 MOL     -0.561909
    153 C49         8.6530    1.6850    1.6600 c3        1 MOL      0.316603
    154 C50         9.0680    0.6160    2.7360 c         1 MOL      0.233444
    155 O20         8.8220    0.8600    3.9780 o         1 MOL     -0.452683
    156 C51         7.6200    2.7090    2.2460 c3        1 MOL      0.360050
    157 C52         7.6030    4.0420    1.4900 c3        1 MOL     -0.381790
    158 C53         6.8390    5.1280    2.2560 c         1 MOL      0.772077
    159 O21         5.5670    5.0600    2.4210 o         1 MOL     -0.697433
    160 O22         7.3890    6.1380    2.7310 o         1 MOL     -0.697433
    161 H72         8.6840    1.6830   -0.4440 hn        1 MOL      0.307891
    162 H73         9.6180    2.1550    1.4940 h1        1 MOL     -0.021271
    163 H74         7.8940    2.8960    3.2800 hc        1 MOL     -0.111260
    164 H75         6.5860    2.3740    2.2770 hc        1 MOL     -0.111260
    165 H76         7.3190    3.7740    0.4770 hc        1 MOL      0.046553
    166 H77         8.6230    4.4280    1.4850 hc        1 MOL      0.046553
    167 N15         9.5950   -0.6020    2.3190 n         1 MOL     -0.175704
    168 C54         9.7410   -1.8290    3.1260 c3        1 MOL     -0.260691
    169 H78         8.7590   -2.1610    3.4630 h1        1 MOL      0.116209
    170 H79        10.1990   -2.6110    2.5200 h1        1 MOL      0.116209
    171 H80        10.3710   -1.6230    3.9910 h1        1 MOL      0.116209
    172 H81         9.8850   -0.6750    1.3480 hn        1 MOL      0.206123
    173 Ca1         0.6790    4.0620    0.7300 Ca        1 MOL      1.812421
    174 O23         2.2470    6.1180    0.5100 oh        1 MOL     -0.903751
    175 O24         1.6450    1.3820    0.6790 oh        1 MOL     -0.903751
    176 H82         1.9880    6.8540   -0.0490 ho        1 MOL      0.442413
    177 H83         1.1100    0.5850    0.6450 ho        1 MOL      0.442413
    178 H84         2.9020    6.4880    1.0970 ho        1 MOL      0.442413
    179 H85         2.4310    1.1310    1.1540 ho        1 MOL      0.442413
    180 O25        -1.4380    5.4880    1.7800 oh        1 MOL     -0.903751
    181 O26         0.8380    4.5870    3.3270 oh        1 MOL     -0.903751
    182 H86        -1.8230    5.6000    2.6450 ho        1 MOL      0.442413
    183 H87         0.9990    4.1380    4.1670 ho        1 MOL      0.442413
    184 H88        -2.0090    5.9750    1.1980 ho        1 MOL      0.442413
    185 H89         0.8140    5.5150    3.5570 ho        1 MOL      0.442413
    186 O27        -0.6380    5.6540   -1.2240 oh        1 MOL     -0.903751
    187 H90        -0.7070    5.7450   -2.1820 ho        1 MOL      0.442413
    188 H91        -1.2730    6.2750   -0.8780 ho        1 MOL      0.442413
    189 O28         3.5590    3.6270    1.4680 oh        1 MOL     -0.903751
    190 H92         4.2160    4.1090    1.9590 ho        1 MOL      0.442413
    191 H93         3.7530    2.7060    1.6430 ho        1 MOL      0.442413
@<TRIPOS>BOND
     1    1    2 1   
     2    1    4 1   
     3    1    5 1   
     4    1    6 1   
     5    2    3 2   
     6    2    7 1   
     7    7    8 1   
     8    7   15 1   
     9    8    9 1   
    10    8   11 1   
    11    8   16 1   
    12    9   10 2   
    13    9   19 1   
    14   11   12 1   
    15   11   17 1   
    16   11   18 1   
    17   12   13 1   
    18   12   14 1   
    19   19   20 1   
    20   19   28 1   
    21   20   21 1   
    22   20   23 1   
    23   20   29 1   
    24   21   22 2   
    25   21   41 1   
    26   23   24 1   
    27   23   30 1   
    28   23   31 1   
    29   24   25 1   
    30   24   32 1   
    31   24   33 1   
    32   25   26 1   
    33   25   34 1   
    34   25   35 1   
    35   26   27 1   
    36   26   36 1   
    37   26   37 1   
    38   27   38 1   
    39   27   39 1   
    40   27   40 1   
    41   41   42 1   
    42   41   49 1   
    43   42   43 1   
    44   42   45 1   
    45   42   50 1   
    46   43   44 2   
    47   43   53 1   
    48   45   46 1   
    49   45   51 1   
    50   45   52 1   
    51   46   47 1   
    52   46   48 1   
    53   53   54 1   
    54   53   57 1   
    55   54   55 1   
    56   54   58 1   
    57   54   59 1   
    58   55   56 2   
    59   55   60 1   
    60   60   61 1   
    61   60   68 1   
    62   61   62 1   
    63   61   64 1   
    64   61   69 1   
    65   62   63 2   
    66   62   74 1   
    67   64   65 1   
    68   64   70 1   
    69   64   71 1   
    70   65   66 1   
    71   65   67 2   
    72   66   72 1   
    73   66   73 1   
    74   74   75 1   
    75   74   78 1   
    76   75   76 1   
    77   75   79 1   
    78   75   80 1   
    79   76   77 2   
    80   76   81 1   
    81   81   82 1   
    82   81   93 1   
    83   82   83 1   
    84   82   85 1   
    85   82   94 1   
    86   83   84 2   
    87   83  102 1   
    88   85   86 1   
    89   85   95 1   
    90   85   96 1   
    91   86   87 ar  
    92   86   88 ar  
    93   87   89 ar  
    94   87   97 1   
    95   88   90 ar  
    96   88   98 1   
    97   89   91 ar  
    98   89   99 1   
    99   90   91 ar  
   100   90  100 1   
   101   91   92 1   
   102   92  101 1   
   103  102  103 1   
   104  102  110 1   
   105  103  104 1   
   106  103  106 1   
   107  103  111 1   
   108  104  105 2   
   109  104  121 1   
   110  106  107 1   
   111  106  108 1   
   112  106  112 1   
   113  107  109 1   
   114  107  113 1   
   115  107  114 1   
   116  108  115 1   
   117  108  116 1   
   118  108  117 1   
   119  109  118 1   
   120  109  119 1   
   121  109  120 1   
   122  121  122 1   
   123  121  127 1   
   124  122  123 1   
   125  122  125 1   
   126  122  128 1   
   127  123  124 2   
   128  123  132 1   
   129  125  126 1   
   130  125  129 1   
   131  125  130 1   
   132  126  131 1   
   133  132  133 1   
   134  132  137 1   
   135  133  134 1   
   136  133  136 1   
   137  133  138 1   
   138  134  135 2   
   139  134  142 1   
   140  136  139 1   
   141  136  140 1   
   142  136  141 1   
   143  142  143 1   
   144  142  147 1   
   145  143  144 1   
   146  143  146 1   
   147  143  148 1   
   148  144  145 2   
   149  144  152 1   
   150  146  149 1   
   151  146  150 1   
   152  146  151 1   
   153  152  153 1   
   154  152  161 1   
   155  153  154 1   
   156  153  156 1   
   157  153  162 1   
   158  154  155 2   
   159  154  167 1   
   160  156  157 1   
   161  156  163 1   
   162  156  164 1   
   163  157  158 1   
   164  157  165 1   
   165  157  166 1   
   166  158  159 1   
   167  158  160 1   
   168  167  168 1   
   169  167  172 1   
   170  168  169 1   
   171  168  170 1   
   172  168  171 1   
   173  174  176 1   
   174  174  178 1   
   175  175  177 1   
   176  175  179 1   
   177  180  182 1   
   178  180  184 1   
   179  181  183 1   
   180  181  185 1   
   181  186  187 1   
   182  186  188 1   
   183  189  190 1   
   184  189  191 1   
@<TRIPOS>SUBSTRUCTURE
     1 MOL         1 TEMP              0 ****  ****    0 ROOT
