@<TRIPOS>MOLECULE
MOL
  195   189     1     0     0
SMALL
resp


@<TRIPOS>ATOM
      1 C1         -3.0670   -1.8910    2.3190 c3        1 MOL     -0.393681
      2 C2         -2.2940   -2.5980    1.1860 c         1 MOL      0.744183
      3 O1         -1.3840   -2.0110    0.5750 o         1 MOL     -0.523767
      4 H1         -2.6510   -2.1850    3.2820 hc        1 MOL      0.080711
      5 H2         -2.9790   -0.8110    2.2010 hc        1 MOL      0.080711
      6 H3         -4.1180   -2.1770    2.2770 hc        1 MOL      0.080711
      7 N1         -2.6340   -3.8530    0.8420 n         1 MOL     -0.401323
      8 C3         -1.8490   -4.7470   -0.0940 c3        1 MOL      0.057880
      9 C4         -0.3450   -4.7880    0.1380 c         1 MOL      0.755012
     10 O2          0.4420   -4.7410   -0.8510 o         1 MOL     -0.556502
     11 C5         -2.3720   -4.6390   -1.5540 c3        1 MOL     -0.657813
     12 C6         -3.9470   -4.7540   -1.6150 c         1 MOL      1.044087
     13 O3         -4.6290   -5.6450   -1.0750 o         1 MOL     -0.810579
     14 O4         -4.6150   -3.9920   -2.3550 o         1 MOL     -0.810579
     15 H4         -3.5080   -4.2000    1.2170 hn        1 MOL      0.168201
     16 H5         -2.2450   -5.7140    0.2110 h1        1 MOL      0.066570
     17 H6         -1.9500   -5.4570   -2.1320 hc        1 MOL      0.188924
     18 H7         -2.0180   -3.7130   -2.0030 hc        1 MOL      0.188924
     19 N2          0.1840   -4.9110    1.3780 n         1 MOL     -0.603161
     20 C7          1.6590   -4.8250    1.6120 c3        1 MOL     -0.252286
     21 C8          2.2110   -6.2560    1.4170 c         1 MOL      0.567274
     22 O5          1.4690   -7.2250    1.5370 o         1 MOL     -0.582930
     23 C9          1.9490   -4.1600    3.0310 c3        1 MOL      0.402535
     24 C10         1.6320   -5.2010    4.1450 c3        1 MOL      0.218655
     25 C11         1.0820   -2.8860    3.1700 c3        1 MOL     -0.329304
     26 C12         1.8790   -4.7580    5.5530 c3        1 MOL     -0.197446
     27 H8         -0.4300   -4.7810    2.1700 hn        1 MOL      0.258812
     28 H9          1.9600   -4.1460    0.8130 h1        1 MOL      0.164340
     29 H10         2.9950   -3.8640    3.1360 hc        1 MOL     -0.038876
     30 H11         2.2900   -6.0590    3.9900 hc        1 MOL     -0.054553
     31 H12         0.5810   -5.4960    4.1130 hc        1 MOL     -0.054553
     32 H13         1.3250   -2.3780    4.1010 hc        1 MOL      0.067012
     33 H14         1.4350   -2.2930    2.3180 hc        1 MOL      0.067012
     34 H15         0.0270   -3.1460    3.1170 hc        1 MOL      0.067012
     35 H16         2.7620   -4.1180    5.6180 hc        1 MOL      0.022323
     36 H17         1.0440   -4.0870    5.7650 hc        1 MOL      0.022323
     37 H18         1.8590   -5.5860    6.2700 hc        1 MOL      0.022323
     38 N3          3.5120   -6.4100    1.1210 n         1 MOL     -0.428475
     39 C13         4.5750   -5.4040    1.2030 c3        1 MOL      0.106116
     40 C14         4.5740   -4.2660    0.1260 c         1 MOL      0.495365
     41 O6          4.9830   -3.1340    0.4370 o         1 MOL     -0.574913
     42 C15         5.9600   -6.0640    1.4110 c3        1 MOL     -0.380676
     43 C16         6.3720   -6.9830    0.2610 c         1 MOL      0.779874
     44 O7          5.5150   -7.5920   -0.3720 o         1 MOL     -0.720574
     45 O8          7.5620   -7.2390    0.0040 o         1 MOL     -0.720574
     46 H19         3.8420   -7.3560    0.9810 hn        1 MOL      0.277112
     47 H20         4.4070   -4.8950    2.1540 h1        1 MOL      0.024267
     48 H21         6.0090   -6.6520    2.3240 hc        1 MOL      0.085603
     49 H22         6.6570   -5.2250    1.4750 hc        1 MOL      0.085603
     50 N4          4.0820   -4.5510   -1.0780 n         1 MOL     -0.078013
     51 C17         4.0300   -3.6300   -2.1340 c3        1 MOL     -0.535478
     52 C18         5.3720   -3.0320   -2.6160 c         1 MOL      0.566062
     53 O9          6.3830   -3.6500   -2.9560 o         1 MOL     -0.551924
     54 H23         3.7500   -5.4800   -1.2450 hn        1 MOL      0.233009
     55 H24         3.2980   -2.8420   -1.9080 h1        1 MOL      0.195369
     56 H25         3.7590   -4.2220   -3.0120 h1        1 MOL      0.195369
     57 N5          5.4080   -1.7070   -2.7650 n         1 MOL     -0.257172
     58 C19         6.4620   -0.8980   -3.3180 c3        1 MOL      0.043181
     59 C20         7.3220   -0.3330   -2.2330 c         1 MOL      0.407657
     60 O10         8.4780    0.0210   -2.4530 o         1 MOL     -0.561403
     61 C21         5.8280    0.2290   -4.1940 c3        1 MOL     -0.410884
     62 C22         4.6820    1.0610   -3.5490 c         1 MOL      0.752159
     63 O11         4.8860    2.0980   -2.8740 o         1 MOL     -0.684358
     64 O12         3.5080    0.6020   -3.6070 o         1 MOL     -0.684358
     65 H26         4.4990   -1.2820   -2.6720 hn        1 MOL      0.191881
     66 H27         7.0730   -1.4810   -4.0100 h1        1 MOL      0.107824
     67 H28         5.4970   -0.2630   -5.1120 hc        1 MOL      0.088927
     68 H29         6.6410    0.9110   -4.4130 hc        1 MOL      0.088927
     69 N6          6.8410   -0.2220   -1.0010 n         1 MOL     -0.095699
     70 C23         7.4800    0.3800    0.2520 c3        1 MOL     -0.170330
     71 C24         7.6140    1.8640    0.3470 c         1 MOL      0.524058
     72 O13         8.4590    2.4000    1.1290 o         1 MOL     -0.557875
     73 H30         5.9630   -0.7020   -0.8400 hn        1 MOL      0.202951
     74 H31         8.4450   -0.1110    0.4340 h1        1 MOL      0.085603
     75 H32         6.8260    0.0010    1.0360 h1        1 MOL      0.085603
     76 N7          6.6960    2.4670   -0.4600 n         1 MOL     -0.038106
     77 C25         6.3460    3.8790   -0.6600 c3        1 MOL      0.096650
     78 C26         5.7810    4.6370    0.5610 c         1 MOL      0.476068
     79 O14         6.1200    5.8110    0.7800 o         1 MOL     -0.519454
     80 C27         7.5070    4.4690   -1.4410 c3        1 MOL     -0.143908
     81 C28         8.1300    3.5410   -2.5350 c3        1 MOL      0.014726
     82 C29         9.3400    4.1980   -3.2320 c         1 MOL      0.621075
     83 N8          9.9520    3.6280   -4.2280 n         1 MOL     -0.804989
     84 O15         9.8850    5.1930   -2.7770 o         1 MOL     -0.584629
     85 H33         6.2400    1.8770   -1.1430 hn        1 MOL      0.023690
     86 H34         5.4380    3.8450   -1.2600 h1        1 MOL      0.086012
     87 H35         8.2150    4.7140   -0.6510 hc        1 MOL      0.035856
     88 H36         7.2410    5.3850   -1.9680 hc        1 MOL      0.035856
     89 H37         7.3990    3.1870   -3.2550 hc        1 MOL      0.008807
     90 H38         8.4680    2.6180   -2.0770 hc        1 MOL      0.008807
     91 H39         9.5990    2.7370   -4.5570 hn        1 MOL      0.357240
     92 H40        10.8020    4.0730   -4.5410 hn        1 MOL      0.357240
     93 N9          5.1020    3.9490    1.5340 n         1 MOL     -0.411210
     94 C30         4.5250    4.4850    2.7500 c3        1 MOL     -0.087286
     95 C31         3.0060    4.1480    2.9190 c         1 MOL      0.719102
     96 O16         2.4240    4.8030    3.7720 o         1 MOL     -0.612101
     97 C32         5.2790    4.1120    4.0820 c3        1 MOL      0.226944
     98 C33         5.1450    2.5440    4.3280 c3        1 MOL     -0.238210
     99 C34         6.7560    4.5390    4.0960 c3        1 MOL     -0.238210
    100 H41         5.1050    2.9690    1.2900 hn        1 MOL      0.167913
    101 H42         4.6080    5.5640    2.6590 h1        1 MOL      0.107262
    102 H43         4.7570    4.5430    4.9230 hc        1 MOL     -0.028445
    103 H44         5.5690    2.3180    5.3000 hc        1 MOL      0.056991
    104 H45         4.1040    2.2170    4.3710 hc        1 MOL      0.056991
    105 H46         5.7780    1.9690    3.6570 hc        1 MOL      0.056991
    106 H47         6.6770    5.6170    4.0090 hc        1 MOL      0.056991
    107 H48         7.2420    4.3430    5.0520 hc        1 MOL      0.056991
    108 H49         7.3810    4.1040    3.3190 hc        1 MOL      0.056991
    109 N10         2.4540    3.3160    2.0510 n         1 MOL     -0.700687
    110 C35         1.0320    2.8860    2.0200 c3        1 MOL      0.539822
    111 C36         0.4720    3.3460    0.7090 c         1 MOL      0.455882
    112 O17         1.1070    3.7250   -0.2940 o         1 MOL     -0.530772
    113 C37         0.8430    1.3920    2.2440 c3        1 MOL     -0.445687
    114 C38         1.2840    0.9060    3.6130 c         1 MOL      0.664772
    115 N11         0.5600    1.2470    4.6630 n         1 MOL     -0.782358
    116 O18         2.2620    0.1410    3.9250 o         1 MOL     -0.572021
    117 H50         3.1130    2.8190    1.4820 hn        1 MOL      0.326520
    118 H51         0.4520    3.4070    2.7770 h1        1 MOL     -0.052363
    119 H52         1.3750    0.7590    1.5430 hc        1 MOL      0.143467
    120 H53        -0.2070    1.1210    2.0970 hc        1 MOL      0.143467
    121 H54        -0.3080    1.7330    4.5160 hn        1 MOL      0.367089
    122 H55         0.8860    0.9220    5.5650 hn        1 MOL      0.367089
    123 N12        -0.7950    3.3980    0.6290 n         1 MOL     -0.352153
    124 C39        -1.6480    4.1150   -0.3930 c3        1 MOL      0.046981
    125 C40        -3.0720    4.2200    0.1250 c         1 MOL      0.474695
    126 O19        -3.4010    3.7280    1.2460 o         1 MOL     -0.556395
    127 C41        -1.6820    3.4370   -1.7770 c3        1 MOL     -0.004124
    128 C42        -2.5520    2.1970   -2.0530 ca        1 MOL      0.001346
    129 C43        -2.4850    0.9900   -1.2730 ca        1 MOL     -0.098410
    130 C44        -3.6030    2.2580   -2.9850 ca        1 MOL     -0.098410
    131 C45        -3.2380   -0.1470   -1.5590 ca        1 MOL     -0.295929
    132 C46        -4.4470    1.1170   -3.2090 ca        1 MOL     -0.295929
    133 C47        -4.2800   -0.1250   -2.4780 ca        1 MOL      0.414184
    134 O20        -5.0400   -1.2570   -2.7320 oh        1 MOL     -0.583130
    135 H56        -1.3450    2.9980    1.3720 hn        1 MOL      0.213368
    136 H57        -1.2970    5.1300   -0.5830 h1        1 MOL      0.097622
    137 H58        -0.6360    3.1460   -1.8840 hc        1 MOL      0.046324
    138 H59        -1.7830    4.0650   -2.6660 hc        1 MOL      0.046324
    139 H60        -1.6920    0.8830   -0.5500 ha        1 MOL      0.104507
    140 H61        -3.7850    3.2080   -3.4660 ha        1 MOL      0.104507
    141 H62        -2.9670   -1.0390   -1.0040 ha        1 MOL      0.126374
    142 H63        -5.2890    1.1610   -3.8880 ha        1 MOL      0.126374
    143 H64        -4.7850   -1.9970   -2.1650 ho        1 MOL      0.448102
    144 N13        -3.9390    4.9360   -0.5960 n         1 MOL     -0.655850
    145 C48        -5.3200    5.2070   -0.1150 c3        1 MOL      0.847761
    146 C49        -6.2620    4.5730   -1.2000 c         1 MOL      0.235924
    147 O21        -6.5280    5.1430   -2.3000 o         1 MOL     -0.517486
    148 C50        -5.5240    6.6990    0.2470 c3        1 MOL     -0.435328
    149 C51        -5.5200    7.7470   -0.8810 c3        1 MOL     -0.066271
    150 C52        -6.5660    8.8870   -0.7150 c         1 MOL      0.691332
    151 O22        -7.3290    9.2300   -1.6620 o         1 MOL     -0.712622
    152 O23        -6.5860    9.5120    0.3540 o         1 MOL     -0.712622
    153 H65        -3.6670    5.3150   -1.4980 hn        1 MOL      0.320733
    154 H66        -5.4420    4.7500    0.8690 h1        1 MOL     -0.126765
    155 H67        -4.8310    6.9780    1.0350 hc        1 MOL      0.107097
    156 H68        -6.5260    6.6000    0.6690 hc        1 MOL      0.107097
    157 H69        -5.5800    7.2810   -1.8660 hc        1 MOL     -0.007193
    158 H70        -4.5260    8.1890   -0.9510 hc        1 MOL     -0.007193
    159 N14        -6.8250    3.3980   -1.0020 n         1 MOL     -0.111187
    160 C53        -6.5570    2.5410    0.1250 c3        1 MOL     -0.694744
    161 C54        -7.2780    2.8770    1.4260 c         1 MOL      0.641798
    162 O24        -8.5140    3.0120    1.4370 o         1 MOL     -0.548439
    163 C55        -6.9480    1.0440   -0.2750 c3        1 MOL      0.325351
    164 C56        -6.1590    0.0810    0.6090 c3        1 MOL     -0.119911
    165 C57        -6.3910   -1.3950    0.2690 c         1 MOL      1.050493
    166 O25        -7.5470   -1.9050    0.2760 o         1 MOL     -0.936150
    167 O26        -5.4370   -2.1160   -0.0890 o         1 MOL     -0.936150
    168 H71        -7.4020    3.0750   -1.7600 hn        1 MOL      0.237362
    169 H72        -5.4780    2.5010    0.2770 h1        1 MOL      0.205176
    170 H73        -6.7510    0.7570   -1.3150 hc        1 MOL     -0.008491
    171 H74        -7.9950    0.7680   -0.1720 hc        1 MOL     -0.008491
    172 H75        -6.5320    0.0580    1.6310 hc        1 MOL     -0.008399
    173 H76        -5.1030    0.3340    0.6020 hc        1 MOL     -0.008399
    174 N15        -6.5790    3.1080    2.5150 n         1 MOL     -0.288649
    175 C58        -7.1300    3.6650    3.7610 c3        1 MOL     -0.129693
    176 H77        -8.1420    3.2910    3.9090 h1        1 MOL      0.074637
    177 H78        -6.5050    3.3640    4.6020 h1        1 MOL      0.074637
    178 H79        -7.1510    4.7540    3.6950 h1        1 MOL      0.074637
    179 H80        -5.5740    2.9960    2.5440 hn        1 MOL      0.258786
    180 Ca1        -6.8780   -4.2510   -0.7560 Ca        1 MOL      1.742183
    181 O27        -8.7090   -3.9210    1.6360 oh        1 MOL     -0.785054
    182 H81        -8.6600   -3.0390    1.2560 ho        1 MOL      0.382321
    183 H82        -9.6490   -4.1010    1.6880 ho        1 MOL      0.382321
    184 O28        -7.7410   -2.8470   -2.8500 oh        1 MOL     -0.785054
    185 H83        -7.7980   -3.5060   -3.5360 ho        1 MOL      0.382321
    186 H84        -7.5920   -2.0190   -3.3200 ho        1 MOL      0.382321
    187 O29        -7.7890   -6.6010    0.2870 oh        1 MOL     -0.785054
    188 H85        -8.4590   -7.2840    0.3490 ho        1 MOL      0.382321
    189 H86        -7.6290   -6.3460    1.2020 ho        1 MOL      0.382321
    190 O30        -9.8900   -4.2790   -1.5480 oh        1 MOL     -0.785054
    191 H87       -10.1510   -3.5060   -2.0460 ho        1 MOL      0.382321
    192 H88       -10.7170   -4.7290   -1.3590 ho        1 MOL      0.382321
    193 O31        -7.2900   -5.7490   -3.0120 oh        1 MOL     -0.785054
    194 H89        -6.6960   -6.4430   -3.2820 ho        1 MOL      0.382321
    195 H90        -7.4110   -5.2160   -3.7980 ho        1 MOL      0.382321
@<TRIPOS>BOND
     1    1    2 1   
     2    1    4 1   
     3    1    5 1   
     4    1    6 1   
     5    2    3 2   
     6    2    7 1   
     7    7    8 1   
     8    7   15 1   
     9    8    9 1   
    10    8   11 1   
    11    8   16 1   
    12    9   10 2   
    13    9   19 1   
    14   11   12 1   
    15   11   17 1   
    16   11   18 1   
    17   12   13 1   
    18   12   14 1   
    19   19   20 1   
    20   19   27 1   
    21   20   21 1   
    22   20   23 1   
    23   20   28 1   
    24   21   22 2   
    25   21   38 1   
    26   23   24 1   
    27   23   25 1   
    28   23   29 1   
    29   24   26 1   
    30   24   30 1   
    31   24   31 1   
    32   25   32 1   
    33   25   33 1   
    34   25   34 1   
    35   26   35 1   
    36   26   36 1   
    37   26   37 1   
    38   38   39 1   
    39   38   46 1   
    40   39   40 1   
    41   39   42 1   
    42   39   47 1   
    43   40   41 2   
    44   40   50 1   
    45   42   43 1   
    46   42   48 1   
    47   42   49 1   
    48   43   44 1   
    49   43   45 1   
    50   50   51 1   
    51   50   54 1   
    52   51   52 1   
    53   51   55 1   
    54   51   56 1   
    55   52   53 2   
    56   52   57 1   
    57   57   58 1   
    58   57   65 1   
    59   58   59 1   
    60   58   61 1   
    61   58   66 1   
    62   59   60 2   
    63   59   69 1   
    64   61   62 1   
    65   61   67 1   
    66   61   68 1   
    67   62   63 1   
    68   62   64 1   
    69   69   70 1   
    70   69   73 1   
    71   70   71 1   
    72   70   74 1   
    73   70   75 1   
    74   71   72 2   
    75   71   76 1   
    76   76   77 1   
    77   76   85 1   
    78   77   78 1   
    79   77   80 1   
    80   77   86 1   
    81   78   79 2   
    82   78   93 1   
    83   80   81 1   
    84   80   87 1   
    85   80   88 1   
    86   81   82 1   
    87   81   89 1   
    88   81   90 1   
    89   82   83 1   
    90   82   84 2   
    91   83   91 1   
    92   83   92 1   
    93   93   94 1   
    94   93  100 1   
    95   94   95 1   
    96   94   97 1   
    97   94  101 1   
    98   95   96 2   
    99   95  109 1   
   100   97   98 1   
   101   97   99 1   
   102   97  102 1   
   103   98  103 1   
   104   98  104 1   
   105   98  105 1   
   106   99  106 1   
   107   99  107 1   
   108   99  108 1   
   109  109  110 1   
   110  109  117 1   
   111  110  111 1   
   112  110  113 1   
   113  110  118 1   
   114  111  112 2   
   115  111  123 1   
   116  113  114 1   
   117  113  119 1   
   118  113  120 1   
   119  114  115 1   
   120  114  116 2   
   121  115  121 1   
   122  115  122 1   
   123  123  124 1   
   124  123  135 1   
   125  124  125 1   
   126  124  127 1   
   127  124  136 1   
   128  125  126 2   
   129  125  144 1   
   130  127  128 1   
   131  127  137 1   
   132  127  138 1   
   133  128  129 ar  
   134  128  130 ar  
   135  129  131 ar  
   136  129  139 1   
   137  130  132 ar  
   138  130  140 1   
   139  131  133 ar  
   140  131  141 1   
   141  132  133 ar  
   142  132  142 1   
   143  133  134 1   
   144  134  143 1   
   145  144  145 1   
   146  144  153 1   
   147  145  146 1   
   148  145  148 1   
   149  145  154 1   
   150  146  147 2   
   151  146  159 1   
   152  148  149 1   
   153  148  155 1   
   154  148  156 1   
   155  149  150 1   
   156  149  157 1   
   157  149  158 1   
   158  150  151 1   
   159  150  152 1   
   160  159  160 1   
   161  159  168 1   
   162  160  161 1   
   163  160  163 1   
   164  160  169 1   
   165  161  162 2   
   166  161  174 1   
   167  163  164 1   
   168  163  170 1   
   169  163  171 1   
   170  164  165 1   
   171  164  172 1   
   172  164  173 1   
   173  165  166 1   
   174  165  167 1   
   175  174  175 1   
   176  174  179 1   
   177  175  176 1   
   178  175  177 1   
   179  175  178 1   
   180  181  182 1   
   181  181  183 1   
   182  184  185 1   
   183  184  186 1   
   184  187  188 1   
   185  187  189 1   
   186  190  191 1   
   187  190  192 1   
   188  193  194 1   
   189  193  195 1   
@<TRIPOS>SUBSTRUCTURE
     1 MOL         1 TEMP              0 ****  ****    0 ROOT
