@<TRIPOS>MOLECULE
MOL
  182   178     1     0     0
SMALL
resp


@<TRIPOS>ATOM
      1 C1         -3.1330   -3.3110    4.9300 c3        1 MOL     -0.194798
      2 C2         -2.5410   -3.2390    3.5560 c         1 MOL      0.727921
      3 O1         -3.2090   -3.4440    2.5470 o         1 MOL     -0.603335
      4 H1         -3.0030   -2.3520    5.4320 hc        1 MOL      0.050475
      5 H2         -4.1950   -3.5420    4.8570 hc        1 MOL      0.050475
      6 H3         -2.6290   -4.0900    5.5030 hc        1 MOL      0.050475
      7 N1         -1.2470   -2.9740    3.4840 n         1 MOL     -0.572323
      8 C3         -0.5130   -2.8330    2.2510 c3        1 MOL     -0.069578
      9 C4         -0.3220   -4.1270    1.4850 c         1 MOL      0.696590
     10 O2          0.2980   -5.0370    2.0080 o         1 MOL     -0.543945
     11 C5          0.8500   -2.2070    2.5640 c3        1 MOL     -0.044234
     12 C6          1.7230   -1.7760    1.4020 c         1 MOL      0.802368
     13 O3          2.7750   -1.1390    1.6820 o         1 MOL     -0.794188
     14 O4          1.3020   -2.0200    0.2290 o         1 MOL     -0.794188
     15 H4         -0.7650   -2.7650    4.3490 hn        1 MOL      0.316991
     16 H5         -1.1270   -2.1310    1.6840 h1        1 MOL      0.007354
     17 H6          1.5350   -2.8360    3.1460 hc        1 MOL      0.021462
     18 H7          0.6060   -1.3520    3.2060 hc        1 MOL      0.021462
     19 N2         -0.9340   -4.1730    0.2890 n         1 MOL     -0.388959
     20 C7         -1.0390   -5.3230   -0.5380 c3        1 MOL     -0.036467
     21 C8          0.3290   -5.7190   -1.1900 c         1 MOL      0.446263
     22 O5          0.5300   -6.9840   -1.4540 o         1 MOL     -0.527354
     23 C9         -2.1090   -5.1290   -1.5800 c3        1 MOL     -0.087917
     24 C10        -3.4900   -5.4600   -0.9150 c3        1 MOL      0.184823
     25 C11        -4.6670   -5.3060   -1.9110 c3        1 MOL     -0.040619
     26 C12        -5.8280   -6.1870   -1.3860 c3        1 MOL      0.007509
     27 N3         -6.9790   -6.2220   -2.3780 n4        1 MOL     -0.326412
     28 H8         -1.3360   -3.3700   -0.1610 hn        1 MOL      0.308798
     29 H9         -1.2530   -6.1850    0.0850 h1        1 MOL      0.089698
     30 H10        -1.9490   -5.8250   -2.4080 hc        1 MOL      0.038672
     31 H11        -2.0800   -4.1090   -1.9480 hc        1 MOL      0.038672
     32 H12        -3.6360   -4.8790   -0.0010 hc        1 MOL     -0.018092
     33 H13        -3.4730   -6.5350   -0.7260 hc        1 MOL     -0.018092
     34 H14        -4.4250   -5.6140   -2.9300 hc        1 MOL      0.024385
     35 H15        -4.7720   -4.2190   -1.8750 hc        1 MOL      0.024385
     36 H16        -6.2000   -5.8190   -0.4330 hx        1 MOL      0.093024
     37 H17        -5.4020   -7.1750   -1.2140 hx        1 MOL      0.093024
     38 H18        -6.7840   -6.6280   -3.2770 hn        1 MOL      0.316207
     39 H19        -7.6690   -6.8550   -1.9970 hn        1 MOL      0.316207
     40 H20        -7.4000   -5.2970   -2.4440 hn        1 MOL      0.316207
     41 N4          1.3080   -4.7430   -1.2350 n         1 MOL     -0.316977
     42 C13         2.5150   -4.9490   -1.9260 c3        1 MOL      0.024304
     43 C14         3.7380   -4.8930   -1.0300 c         1 MOL      0.433560
     44 O6          4.8630   -5.2070   -1.5140 o         1 MOL     -0.565264
     45 C15         2.6470   -3.9620   -3.1610 c3        1 MOL     -0.302024
     46 C16         2.6740   -2.4820   -2.6770 c         1 MOL      0.903150
     47 O7          3.5100   -2.1510   -1.8660 o         1 MOL     -0.825568
     48 O8          1.7820   -1.6850   -3.0760 o         1 MOL     -0.825568
     49 H21         1.1840   -3.8150   -0.8310 hn        1 MOL      0.196058
     50 H22         2.5000   -5.9480   -2.3750 h1        1 MOL      0.115691
     51 H23         1.8890   -4.1850   -3.9140 hc        1 MOL      0.083659
     52 H24         3.6330   -4.0440   -3.6130 hc        1 MOL      0.083659
     53 N5          3.4960   -4.5660    0.2640 n         1 MOL     -0.144399
     54 C17         4.5510   -4.5900    1.2630 c3        1 MOL     -0.188189
     55 C18         5.6700   -3.5270    1.0820 c         1 MOL      0.471549
     56 O9          6.6500   -3.5750    1.8080 o         1 MOL     -0.520876
     57 H25         2.5680   -4.2540    0.5380 hn        1 MOL      0.139787
     58 H26         4.9550   -5.5970    1.3580 h1        1 MOL      0.118400
     59 H27         4.0760   -4.4060    2.2220 h1        1 MOL      0.118400
     60 N6          5.5150   -2.5660    0.1750 n         1 MOL     -0.175351
     61 C19         6.6550   -1.6650   -0.1730 c3        1 MOL     -0.047216
     62 C20         6.2360   -0.2070   -0.5890 c         1 MOL      0.498876
     63 O10         5.0290    0.1400   -0.6090 o         1 MOL     -0.516570
     64 C21         7.4230   -2.3310   -1.3500 c3        1 MOL     -0.332468
     65 C22         8.1400   -3.5590   -0.9350 c         1 MOL      0.714121
     66 N7          7.5840   -4.7300   -1.0610 n         1 MOL     -0.870881
     67 O11         9.2700   -3.5710   -0.4340 o         1 MOL     -0.600304
     68 H28         4.6800   -2.4600   -0.3690 hn        1 MOL      0.309797
     69 H29         7.2560   -1.6130    0.7330 h1        1 MOL      0.102780
     70 H30         8.2360   -1.7100   -1.7380 hc        1 MOL      0.082952
     71 H31         6.7590   -2.6320   -2.1540 hc        1 MOL      0.082952
     72 H32         6.6280   -4.6880   -1.3770 hn        1 MOL      0.409075
     73 H33         8.0150   -5.5590   -0.6740 hn        1 MOL      0.409075
     74 N8          7.1600    0.6890   -0.8520 n         1 MOL     -0.340647
     75 C23         6.8200    2.1150   -1.0890 c3        1 MOL     -0.187553
     76 C24         5.9620    2.8010    0.0450 c         1 MOL      0.516567
     77 O12         6.1460    2.4450    1.2260 o         1 MOL     -0.475252
     78 H34         8.1100    0.3400   -0.9440 hn        1 MOL      0.315371
     79 H35         6.2830    2.1360   -2.0380 h1        1 MOL      0.092673
     80 H36         7.8010    2.5950   -1.1330 h1        1 MOL      0.092673
     81 N9          5.0970    3.7230   -0.3200 n         1 MOL     -0.447550
     82 C25         3.9920    4.2550    0.4360 c3        1 MOL      0.236267
     83 C26         3.1410    3.1000    0.9940 c         1 MOL      0.379871
     84 O13         3.3290    1.9430    0.6170 o         1 MOL     -0.413560
     85 C27         3.2000    5.4130   -0.3060 c3        1 MOL      0.009511
     86 C28         4.1060    6.5170   -0.7920 ca        1 MOL      0.005451
     87 C29         4.7560    7.4330    0.1460 ca        1 MOL     -0.186314
     88 C30         4.3000    6.7640   -2.1430 ca        1 MOL     -0.186314
     89 C31         5.6290    8.4310   -0.3060 ca        1 MOL     -0.192497
     90 C32         5.0500    7.7950   -2.6080 ca        1 MOL     -0.192497
     91 C33         5.7240    8.6720   -1.7160 ca        1 MOL      0.272030
     92 O14         6.3390    9.7640   -2.1970 oh        1 MOL     -0.417027
     93 H37         5.2070    3.9860   -1.2920 hn        1 MOL      0.238941
     94 H38         4.5190    4.7220    1.2690 h1        1 MOL      0.046170
     95 H39         2.4130    5.8390    0.3110 hc        1 MOL      0.017040
     96 H40         2.6730    5.1030   -1.2130 hc        1 MOL      0.017040
     97 H41         4.5090    7.3810    1.2000 ha        1 MOL      0.130770
     98 H42         3.8100    6.0680   -2.8110 ha        1 MOL      0.130770
     99 H43         5.9720    9.2270    0.3340 ha        1 MOL      0.140351
    100 H44         5.2110    7.8430   -3.6690 ha        1 MOL      0.140351
    101 H45         6.0800    9.8670   -3.1140 ho        1 MOL      0.336567
    102 N10         2.2700    3.4670    1.8850 n         1 MOL     -0.650348
    103 C34         1.3610    2.5780    2.6500 c3        1 MOL      0.419821
    104 C35         0.4090    1.7180    1.8220 c         1 MOL      0.179640
    105 O15         0.8220    0.9010    0.9560 o         1 MOL     -0.339339
    106 C36         2.1650    1.7880    3.7020 c3        1 MOL      0.245634
    107 C37         1.3320    1.1860    4.8870 c3        1 MOL     -0.102520
    108 C38         3.2460    2.6510    4.3710 c3        1 MOL     -0.451786
    109 C39         0.6220    2.1910    5.8930 c3        1 MOL     -0.102290
    110 H46         2.2600    4.4450    2.1460 hn        1 MOL      0.298664
    111 H47         0.6630    3.1980    3.2130 h1        1 MOL     -0.034229
    112 H48         2.6020    0.8840    3.2760 hc        1 MOL      0.039146
    113 H49         2.0110    0.5200    5.4130 hc        1 MOL      0.036280
    114 H50         0.5990    0.5580    4.3830 hc        1 MOL      0.036280
    115 H51         2.8700    3.6140    4.7190 hc        1 MOL      0.117951
    116 H52         3.5270    2.0780    5.2460 hc        1 MOL      0.117951
    117 H53         4.0120    2.7490    3.6110 hc        1 MOL      0.117951
    118 H54         0.1030    1.5440    6.6030 hc        1 MOL      0.022621
    119 H55         1.3050    2.8340    6.4390 hc        1 MOL      0.022621
    120 H56        -0.1150    2.7740    5.3330 hc        1 MOL      0.022621
    121 N11        -0.8650    1.8210    2.0350 n         1 MOL     -0.374927
    122 C40        -1.8480    0.7620    1.9700 c3        1 MOL      0.025219
    123 C41        -3.1360    1.0900    1.1870 c         1 MOL      0.622843
    124 O16        -3.9130    0.1650    1.0140 o         1 MOL     -0.533483
    125 C42        -2.1360    0.2680    3.3810 c3        1 MOL      0.159716
    126 O17        -2.6180    1.3300    4.2750 oh        1 MOL     -0.665292
    127 H57        -1.1920    2.7000    2.4120 hn        1 MOL      0.321633
    128 H58        -1.4030   -0.0550    1.4020 h1        1 MOL      0.063973
    129 H59        -1.2090   -0.0970    3.8450 h1        1 MOL      0.038950
    130 H60        -2.9090   -0.4960    3.3560 h1        1 MOL      0.038950
    131 H61        -3.1210    1.0290    5.0360 ho        1 MOL      0.427127
    132 N12        -3.3080    2.3180    0.6970 n         1 MOL     -0.607250
    133 C43        -4.3110    2.6860   -0.2620 c3        1 MOL      0.509335
    134 C44        -3.8720    2.4030   -1.7120 c         1 MOL      0.374035
    135 O18        -2.7080    2.6490   -1.8870 o         1 MOL     -0.526758
    136 C45        -4.7110    4.1510    0.0010 c3        1 MOL     -0.226991
    137 H62        -2.6240    3.0390    0.9040 hn        1 MOL      0.261270
    138 H63        -5.1940    2.1040   -0.0180 h1        1 MOL     -0.076402
    139 H64        -5.3800    4.4220   -0.8110 hc        1 MOL      0.063087
    140 H65        -5.2440    4.2090    0.9520 hc        1 MOL      0.063087
    141 H66        -3.8920    4.8690   -0.0150 hc        1 MOL      0.063087
    142 N13        -4.6730    2.1880   -2.7160 n         1 MOL     -0.487096
    143 C46        -6.1190    1.9400   -2.6340 c3        1 MOL      0.229510
    144 C47        -7.0890    3.1620   -2.5920 c         1 MOL      0.556883
    145 O19        -6.8420    4.2280   -3.2330 o         1 MOL     -0.556163
    146 C48        -6.4280    1.0740   -3.8050 c3        1 MOL     -0.375776
    147 H67        -4.2280    2.2320   -3.6310 hn        1 MOL      0.320387
    148 H68        -6.2890    1.3230   -1.7510 h1        1 MOL      0.067506
    149 H69        -7.4930    0.8580   -3.7260 hc        1 MOL      0.104867
    150 H70        -6.1690    1.5850   -4.7370 hc        1 MOL      0.104867
    151 H71        -5.8770    0.1350   -3.7670 hc        1 MOL      0.104867
    152 N14        -8.1600    3.0870   -1.7340 n         1 MOL     -0.571752
    153 C49        -8.5050    2.1930   -0.5460 c3        1 MOL     -0.310516
    154 C50        -8.9120    3.0670    0.6510 c         1 MOL      0.577753
    155 O20        -8.5500    2.6880    1.7880 o         1 MOL     -0.498645
    156 C51        -9.4940    1.0680   -1.0810 c3        1 MOL      0.049402
    157 C52        -9.7770    0.0080    0.0570 c3        1 MOL     -0.324084
    158 C53       -10.2520   -1.3470   -0.5410 c         1 MOL      0.735534
    159 O21       -11.4130   -1.4410   -0.8300 o         1 MOL     -0.727802
    160 O22        -9.4340   -2.2630   -0.7940 o         1 MOL     -0.727802
    161 H72        -8.8910    3.7370   -1.9730 hn        1 MOL      0.319514
    162 H73        -7.5920    1.6960   -0.2010 h1        1 MOL      0.225047
    163 H74        -8.9280    0.5930   -1.8740 hc        1 MOL      0.057399
    164 H75       -10.3560    1.5480   -1.5490 hc        1 MOL      0.057399
    165 H76       -10.5380    0.4500    0.7010 hc        1 MOL      0.074005
    166 H77        -8.8620   -0.0190    0.6520 hc        1 MOL      0.074005
    167 N15        -9.6710    4.1880    0.5050 n         1 MOL     -0.370252
    168 C54       -10.0350    5.1600    1.5530 c3        1 MOL     -0.089248
    169 H78        -9.2480    5.9100    1.6420 h1        1 MOL      0.076582
    170 H79       -10.9720    5.6490    1.2870 h1        1 MOL      0.076582
    171 H80       -10.1510    4.6430    2.5050 h1        1 MOL      0.076582
    172 H81       -10.0340    4.5110   -0.3810 hn        1 MOL      0.291486
    173 Ca1         2.4370    0.0290   -0.9760 Ca        1 MOL      1.739705
    174 O23         4.0840    0.4280   -3.2810 oh        1 MOL     -0.836394
    175 O24        -0.4480    0.1110   -1.6030 oh        1 MOL     -0.836394
    176 H82         4.5410    1.1580   -3.6960 ho        1 MOL      0.413704
    177 H83        -0.9010   -0.6760   -1.2830 ho        1 MOL      0.413704
    178 H84         4.2820   -0.3270   -3.8380 ho        1 MOL      0.413704
    179 H85        -0.8750    0.3130   -2.4310 ho        1 MOL      0.413704
    180 O25         1.8520    2.5270   -2.3520 oh        1 MOL     -0.836394
    181 H86         2.2990    2.9820   -3.0740 ho        1 MOL      0.413704
    182 H87         0.9270    2.7230   -2.4880 ho        1 MOL      0.413704
@<TRIPOS>BOND
     1    1    2 1   
     2    1    4 1   
     3    1    5 1   
     4    1    6 1   
     5    2    3 2   
     6    2    7 1   
     7    7    8 1   
     8    7   15 1   
     9    8    9 1   
    10    8   11 1   
    11    8   16 1   
    12    9   10 2   
    13    9   19 1   
    14   11   12 1   
    15   11   17 1   
    16   11   18 1   
    17   12   13 1   
    18   12   14 1   
    19   19   20 1   
    20   19   28 1   
    21   20   21 1   
    22   20   23 1   
    23   20   29 1   
    24   21   22 2   
    25   21   41 1   
    26   23   24 1   
    27   23   30 1   
    28   23   31 1   
    29   24   25 1   
    30   24   32 1   
    31   24   33 1   
    32   25   26 1   
    33   25   34 1   
    34   25   35 1   
    35   26   27 1   
    36   26   36 1   
    37   26   37 1   
    38   27   38 1   
    39   27   39 1   
    40   27   40 1   
    41   41   42 1   
    42   41   49 1   
    43   42   43 1   
    44   42   45 1   
    45   42   50 1   
    46   43   44 2   
    47   43   53 1   
    48   45   46 1   
    49   45   51 1   
    50   45   52 1   
    51   46   47 1   
    52   46   48 1   
    53   53   54 1   
    54   53   57 1   
    55   54   55 1   
    56   54   58 1   
    57   54   59 1   
    58   55   56 2   
    59   55   60 1   
    60   60   61 1   
    61   60   68 1   
    62   61   62 1   
    63   61   64 1   
    64   61   69 1   
    65   62   63 2   
    66   62   74 1   
    67   64   65 1   
    68   64   70 1   
    69   64   71 1   
    70   65   66 1   
    71   65   67 2   
    72   66   72 1   
    73   66   73 1   
    74   74   75 1   
    75   74   78 1   
    76   75   76 1   
    77   75   79 1   
    78   75   80 1   
    79   76   77 2   
    80   76   81 1   
    81   81   82 1   
    82   81   93 1   
    83   82   83 1   
    84   82   85 1   
    85   82   94 1   
    86   83   84 2   
    87   83  102 1   
    88   85   86 1   
    89   85   95 1   
    90   85   96 1   
    91   86   87 ar  
    92   86   88 ar  
    93   87   89 ar  
    94   87   97 1   
    95   88   90 ar  
    96   88   98 1   
    97   89   91 ar  
    98   89   99 1   
    99   90   91 ar  
   100   90  100 1   
   101   91   92 1   
   102   92  101 1   
   103  102  103 1   
   104  102  110 1   
   105  103  104 1   
   106  103  106 1   
   107  103  111 1   
   108  104  105 2   
   109  104  121 1   
   110  106  107 1   
   111  106  108 1   
   112  106  112 1   
   113  107  109 1   
   114  107  113 1   
   115  107  114 1   
   116  108  115 1   
   117  108  116 1   
   118  108  117 1   
   119  109  118 1   
   120  109  119 1   
   121  109  120 1   
   122  121  122 1   
   123  121  127 1   
   124  122  123 1   
   125  122  125 1   
   126  122  128 1   
   127  123  124 2   
   128  123  132 1   
   129  125  126 1   
   130  125  129 1   
   131  125  130 1   
   132  126  131 1   
   133  132  133 1   
   134  132  137 1   
   135  133  134 1   
   136  133  136 1   
   137  133  138 1   
   138  134  135 2   
   139  134  142 1   
   140  136  139 1   
   141  136  140 1   
   142  136  141 1   
   143  142  143 1   
   144  142  147 1   
   145  143  144 1   
   146  143  146 1   
   147  143  148 1   
   148  144  145 2   
   149  144  152 1   
   150  146  149 1   
   151  146  150 1   
   152  146  151 1   
   153  152  153 1   
   154  152  161 1   
   155  153  154 1   
   156  153  156 1   
   157  153  162 1   
   158  154  155 2   
   159  154  167 1   
   160  156  157 1   
   161  156  163 1   
   162  156  164 1   
   163  157  158 1   
   164  157  165 1   
   165  157  166 1   
   166  158  159 1   
   167  158  160 1   
   168  167  168 1   
   169  167  172 1   
   170  168  169 1   
   171  168  170 1   
   172  168  171 1   
   173  174  176 1   
   174  174  178 1   
   175  175  177 1   
   176  175  179 1   
   177  180  181 1   
   178  180  182 1   
@<TRIPOS>SUBSTRUCTURE
     1 MOL         1 TEMP              0 ****  ****    0 ROOT
