@<TRIPOS>MOLECULE
MOL
  181   177     1     0     0
SMALL
resp


@<TRIPOS>ATOM
      1 C1          2.2230    6.5130   -1.7220 c3        1 MOL     -0.352877
      2 C2          3.5910    6.7060   -1.0230 c         1 MOL      0.749398
      3 O1          3.6600    7.3620   -0.0020 o         1 MOL     -0.624234
      4 H1          1.4290    6.8890   -1.0750 hc        1 MOL      0.078296
      5 H2          2.2150    7.0630   -2.6630 hc        1 MOL      0.078296
      6 H3          2.0600    5.4530   -1.9170 hc        1 MOL      0.078296
      7 N1          4.6700    6.2080   -1.5280 n         1 MOL     -0.611383
      8 C3          6.0550    6.2410   -0.9430 c3        1 MOL      0.282213
      9 C4          6.2320    4.9620   -0.0920 c         1 MOL      0.518109
     10 O2          6.7960    4.0190   -0.5860 o         1 MOL     -0.497370
     11 C5          7.1230    6.4400   -2.0800 c3        1 MOL     -0.389307
     12 C6          8.5910    6.3620   -1.6410 c         1 MOL      0.769911
     13 O3          9.3840    6.1790   -2.6050 o         1 MOL     -0.742336
     14 O4          9.0030    6.5710   -0.4600 o         1 MOL     -0.742336
     15 H4          4.5000    5.5530   -2.2820 hn        1 MOL      0.295938
     16 H5          6.1370    7.0990   -0.2920 h1        1 MOL      0.030183
     17 H6          6.9690    7.3840   -2.6120 hc        1 MOL      0.067982
     18 H7          6.9780    5.6130   -2.7670 hc        1 MOL      0.067982
     19 N2          5.6720    5.0360    1.0940 n         1 MOL     -0.722883
     20 C7          5.4890    3.8730    2.0650 c3        1 MOL      0.736012
     21 C8          4.0240    3.3650    2.0640 c         1 MOL      0.330011
     22 O5          3.1020    4.0810    1.7890 o         1 MOL     -0.525407
     23 C9          5.9340    4.3650    3.4540 c3        1 MOL     -0.491143
     24 H8          5.3860    5.9600    1.3850 hn        1 MOL      0.322642
     25 H9          6.1120    3.0540    1.6770 h1        1 MOL     -0.075622
     26 H10         7.0080    4.1830    3.5330 hc        1 MOL      0.117009
     27 H11         5.6360    5.3820    3.6910 hc        1 MOL      0.117009
     28 H12         5.4460    3.7220    4.1910 hc        1 MOL      0.117009
     29 N3          3.7660    2.1740    2.5720 n         1 MOL     -0.426876
     30 C10         4.7130    1.0550    3.0810 c3        1 MOL     -0.073062
     31 C11         5.1880    0.1760    1.8840 c         1 MOL      0.572778
     32 O6          4.6740    0.3560    0.7900 o         1 MOL     -0.511023
     33 C12         4.1750    0.3360    4.3100 c3        1 MOL     -0.143828
     34 C13         2.6950   -0.0640    4.2380 c         1 MOL      0.656112
     35 O7          2.3020   -0.7220    5.2290 o         1 MOL     -0.680272
     36 O8          1.8780    0.1930    3.3360 o         1 MOL     -0.680272
     37 H13         2.8060    1.8870    2.4600 hn        1 MOL      0.345765
     38 H14         5.6390    1.4830    3.4600 h1        1 MOL      0.055938
     39 H15         4.4370    1.0160    5.1140 hc        1 MOL      0.045649
     40 H16         4.7790   -0.5560    4.4730 hc        1 MOL      0.045649
     41 N4          6.0970   -0.7640    2.1010 n         1 MOL     -0.474762
     42 C14         6.4940   -1.7750    1.0930 c3        1 MOL      0.011832
     43 C15         7.8200   -1.4070    0.3640 c         1 MOL      0.580487
     44 O9          8.5630   -0.5050    0.8340 o         1 MOL     -0.540347
     45 H17         6.6750   -0.5270    2.8930 hn        1 MOL      0.308661
     46 H18         5.7280   -1.8900    0.3240 h1        1 MOL      0.047519
     47 H19         6.6360   -2.7120    1.6270 h1        1 MOL      0.047519
     48 N5          8.2130   -2.0700   -0.7140 n         1 MOL     -0.465901
     49 C16         7.6280   -3.2390   -1.3110 c3        1 MOL      0.001708
     50 C17         6.4080   -2.8010   -2.1360 c         1 MOL      0.603859
     51 O10         6.5080   -2.0110   -3.1110 o         1 MOL     -0.520282
     52 C18         8.7330   -4.0360   -2.0220 c3        1 MOL     -0.240751
     53 C19         8.4420   -5.5000   -2.3650 c         1 MOL      0.641657
     54 N6          8.3650   -5.8110   -3.6200 n         1 MOL     -0.755091
     55 O11         8.4220   -6.3590   -1.5110 o         1 MOL     -0.559342
     56 H20         9.0990   -1.8450   -1.1370 hn        1 MOL      0.314388
     57 H21         7.3030   -3.8730   -0.4940 h1        1 MOL      0.052645
     58 H22         9.6220   -4.1170   -1.4010 hc        1 MOL      0.095737
     59 H23         8.9690   -3.5810   -2.9760 hc        1 MOL      0.095737
     60 H24         8.4940   -5.1270   -4.3510 hn        1 MOL      0.362165
     61 H25         8.3580   -6.8020   -3.8250 hn        1 MOL      0.362165
     62 N7          5.1880   -3.3070   -1.8440 n         1 MOL     -0.261297
     63 C20         4.0900   -3.4470   -2.7950 c3        1 MOL     -0.375594
     64 C21         2.7270   -4.0470   -2.3360 c         1 MOL      0.648358
     65 O12         1.9060   -4.1780   -3.2610 o         1 MOL     -0.572359
     66 H26         5.0850   -3.9360   -1.0570 hn        1 MOL      0.185300
     67 H27         4.5270   -4.0180   -3.6140 h1        1 MOL      0.162322
     68 H28         3.7480   -2.4510   -3.0600 h1        1 MOL      0.162322
     69 N8          2.3940   -4.4300   -1.0950 n         1 MOL     -0.372242
     70 C22         1.0350   -4.9610   -0.8450 c3        1 MOL     -0.252900
     71 C23        -0.0210   -3.8440   -0.7520 c         1 MOL      0.808460
     72 O13         0.2480   -2.7740   -0.1770 o         1 MOL     -0.659055
     73 C24         1.0060   -5.8750    0.4720 c3        1 MOL      0.470536
     74 C25         1.3370   -7.2820    0.0070 c3        1 MOL     -0.370835
     75 O14         1.8640   -5.5210    1.5090 oh        1 MOL     -0.657377
     76 H29         2.9420   -4.2210   -0.2750 hn        1 MOL      0.277199
     77 H30         0.7880   -5.6060   -1.6910 h1        1 MOL      0.116856
     78 H31        -0.0200   -5.8620    0.8540 h1        1 MOL      0.007896
     79 H32         1.4800   -4.8450    2.0820 ho        1 MOL      0.418421
     80 H33         1.1950   -7.8710    0.9130 hc        1 MOL      0.087786
     81 H34         0.6330   -7.6820   -0.7170 hc        1 MOL      0.087786
     82 H35         2.3820   -7.4100   -0.3000 hc        1 MOL      0.087786
     83 N9         -1.2450   -4.0650   -1.2460 n         1 MOL     -0.644525
     84 C26        -2.3680   -3.1800   -1.1670 c3        1 MOL      0.149722
     85 C27        -3.0270   -3.5130    0.2280 c         1 MOL      0.387972
     86 O15        -3.2540   -4.7010    0.5680 o         1 MOL     -0.566247
     87 C28        -3.3370   -3.4420   -2.3870 c3        1 MOL      0.248787
     88 C29        -4.4760   -2.3960   -2.2360 c3        1 MOL     -0.233789
     89 C30        -2.6450   -3.3220   -3.7650 c3        1 MOL     -0.312697
     90 C31        -5.6460   -2.7350   -3.1050 c3        1 MOL     -0.057240
     91 H36        -1.4290   -4.9710   -1.6590 hn        1 MOL      0.300765
     92 H37        -2.0980   -2.1220   -1.2070 h1        1 MOL      0.053645
     93 H38        -3.6470   -4.4730   -2.2870 hc        1 MOL     -0.016734
     94 H39        -4.1050   -1.4360   -2.5890 hc        1 MOL      0.053375
     95 H40        -4.7450   -2.2790   -1.1950 hc        1 MOL      0.053375
     96 H41        -2.2040   -2.3290   -3.8470 hc        1 MOL      0.081614
     97 H42        -1.8590   -4.0830   -3.8150 hc        1 MOL      0.081614
     98 H43        -3.3160   -3.4930   -4.6100 hc        1 MOL      0.081614
     99 H44        -6.1690   -3.5950   -2.6790 hc        1 MOL      0.009330
    100 H45        -6.4250   -1.9660   -3.0910 hc        1 MOL      0.009330
    101 H46        -5.4400   -2.9990   -4.1410 hc        1 MOL      0.009330
    102 N10        -3.4890   -2.4550    0.8560 n         1 MOL     -0.250486
    103 C32        -4.3230   -2.5180    2.0470 c3        1 MOL      0.001848
    104 C33        -5.7080   -1.9150    1.7560 c         1 MOL      0.439576
    105 O16        -6.5350   -2.2370    2.5940 o         1 MOL     -0.538359
    106 C34        -3.7400   -1.8050    3.2800 c3        1 MOL     -0.297128
    107 C35        -2.2780   -2.1090    3.4680 c         1 MOL      0.835608
    108 O17        -1.4390   -1.2580    3.4350 o         1 MOL     -0.737249
    109 O18        -1.9190   -3.3040    3.5200 o         1 MOL     -0.737249
    110 H47        -3.3470   -1.5670    0.3980 hn        1 MOL      0.339990
    111 H48        -4.4960   -3.5630    2.3010 h1        1 MOL      0.131981
    112 H49        -4.3160   -2.0820    4.1600 hc        1 MOL      0.085661
    113 H50        -3.8670   -0.7310    3.1630 hc        1 MOL      0.085661
    114 N11        -6.0720   -1.2000    0.6790 n         1 MOL     -0.440900
    115 C36        -7.3510   -0.4200    0.5690 c3        1 MOL      0.347840
    116 C37        -7.0970    1.0190    0.0460 c         1 MOL      0.025703
    117 O19        -7.0510    1.3220   -1.1750 o         1 MOL     -0.331990
    118 C38        -8.4210   -1.0290   -0.3300 c3        1 MOL     -0.236256
    119 C39        -9.6900   -0.1770   -0.2580 ca        1 MOL      0.075507
    120 C40       -10.6230   -0.3470    0.7890 ca        1 MOL     -0.104030
    121 C41       -10.0630    0.6370   -1.3430 ca        1 MOL     -0.104030
    122 C42       -11.9150    0.0980    0.7470 ca        1 MOL     -0.170581
    123 C43       -11.3750    1.2240   -1.3590 ca        1 MOL     -0.170581
    124 C44       -12.2310    0.9670   -0.2930 ca        1 MOL     -0.066663
    125 H51        -5.3180   -1.0310    0.0360 hn        1 MOL      0.366000
    126 H52        -7.7690   -0.4560    1.5710 h1        1 MOL     -0.016664
    127 H53        -8.6710   -2.0450   -0.0400 hc        1 MOL      0.087982
    128 H54        -7.9600   -1.0230   -1.3170 hc        1 MOL      0.087982
    129 H55       -10.2380   -1.0250    1.5310 ha        1 MOL      0.107448
    130 H56        -9.4030    0.8200   -2.1810 ha        1 MOL      0.107448
    131 H57       -12.6010   -0.0770    1.5600 ha        1 MOL      0.118620
    132 H58       -11.8110    1.7360   -2.1980 ha        1 MOL      0.118620
    133 H59       -13.2530    1.3210   -0.2460 ha        1 MOL      0.079527
    134 N12        -6.8810    1.9890    0.9350 n         1 MOL      0.006999
    135 C45        -6.6130    3.4120    0.4970 c3        1 MOL     -0.084881
    136 C46        -5.6160    3.7390   -0.6250 c         1 MOL      0.180658
    137 O20        -5.7450    4.8800   -1.1130 o         1 MOL     -0.452322
    138 C47        -6.2310    4.1130    1.7670 c3        1 MOL      0.182178
    139 C48        -6.9490    3.2710    2.9100 c3        1 MOL     -0.319370
    140 C49        -6.9820    1.8780    2.4170 c3        1 MOL      0.164977
    141 H60        -7.5930    3.7960    0.2160 h1        1 MOL      0.103055
    142 H61        -5.1590    4.0560    1.9320 hc        1 MOL      0.007637
    143 H62        -6.4870    5.1710    1.7760 hc        1 MOL      0.007637
    144 H63        -6.3470    3.4070    3.8120 hc        1 MOL      0.081501
    145 H64        -7.9620    3.6690    2.9100 hc        1 MOL      0.081501
    146 H65        -6.1490    1.3360    2.8750 h1        1 MOL      0.028396
    147 H66        -7.9000    1.3810    2.7310 h1        1 MOL      0.028396
    148 N13        -4.7030    2.8660   -1.0330 n         1 MOL     -0.058019
    149 C50        -3.8590    3.0430   -2.2690 c3        1 MOL     -0.218242
    150 C51        -4.7080    3.3600   -3.5030 c         1 MOL      0.375043
    151 O21        -4.3950    4.2000   -4.3880 o         1 MOL     -0.523845
    152 C52        -3.0920    1.7330   -2.6320 c3        1 MOL      0.120179
    153 C53        -1.9800    1.3260   -1.6300 c3        1 MOL     -0.362638
    154 C54        -2.4460    0.3340   -0.5320 c         1 MOL      0.857810
    155 O22        -1.6190   -0.3410    0.1040 o         1 MOL     -0.809074
    156 O23        -3.6240    0.1260   -0.3070 o         1 MOL     -0.809074
    157 H67        -4.7980    1.9630   -0.5830 hn        1 MOL      0.181376
    158 H68        -3.1550    3.8710   -2.1410 h1        1 MOL      0.158661
    159 H69        -2.5820    1.7870   -3.5960 hc        1 MOL      0.023619
    160 H70        -3.7980    0.9290   -2.8470 hc        1 MOL      0.023619
    161 H71        -1.5490    2.1610   -1.0940 hc        1 MOL      0.099190
    162 H72        -1.2570    0.8670   -2.2980 hc        1 MOL      0.099190
    163 N14        -5.9480    2.7940   -3.5900 n         1 MOL     -0.029358
    164 C55        -6.8760    3.0660   -4.6900 c3        1 MOL     -0.291095
    165 H73        -6.7070    2.3490   -5.4930 h1        1 MOL      0.105520
    166 H74        -7.9020    2.9740   -4.3320 h1        1 MOL      0.105520
    167 H75        -6.7100    4.0760   -5.0640 h1        1 MOL      0.105520
    168 H76        -6.1920    2.0580   -2.9470 hn        1 MOL      0.128506
    169 Ca1         0.3620   -0.9480    1.7320 Ca        1 MOL      1.711464
    170 O24         0.4400   -3.5310    2.7230 oh        1 MOL     -0.841378
    171 H77         0.7410   -3.8000    3.5850 ho        1 MOL      0.408534
    172 H78        -0.5170   -3.5320    2.7900 ho        1 MOL      0.408534
    173 O25         1.8140    0.8520    0.3070 oh        1 MOL     -0.841378
    174 H79         2.7460    0.7800    0.1140 ho        1 MOL      0.408534
    175 H80         1.5000    1.5460   -0.2770 ho        1 MOL      0.408534
    176 O26         2.8840   -1.9660    1.3360 oh        1 MOL     -0.841378
    177 H81         3.5510   -1.3660    0.9950 ho        1 MOL      0.408534
    178 H82         3.3560   -2.5080    1.9680 ho        1 MOL      0.408534
    179 O27        -0.7950    1.4500    2.6530 oh        1 MOL     -0.841378
    180 H83        -0.4720    2.3520    2.5930 ho        1 MOL      0.408534
    181 H84        -1.7350    1.5310    2.5380 ho        1 MOL      0.408534
@<TRIPOS>BOND
     1    1    2 1   
     2    1    4 1   
     3    1    5 1   
     4    1    6 1   
     5    2    3 2   
     6    2    7 1   
     7    7    8 1   
     8    7   15 1   
     9    8    9 1   
    10    8   11 1   
    11    8   16 1   
    12    9   10 2   
    13    9   19 1   
    14   11   12 1   
    15   11   17 1   
    16   11   18 1   
    17   12   13 1   
    18   12   14 1   
    19   19   20 1   
    20   19   24 1   
    21   20   21 1   
    22   20   23 1   
    23   20   25 1   
    24   21   22 2   
    25   21   29 1   
    26   23   26 1   
    27   23   27 1   
    28   23   28 1   
    29   29   30 1   
    30   29   37 1   
    31   30   31 1   
    32   30   33 1   
    33   30   38 1   
    34   31   32 2   
    35   31   41 1   
    36   33   34 1   
    37   33   39 1   
    38   33   40 1   
    39   34   35 1   
    40   34   36 1   
    41   41   42 1   
    42   41   45 1   
    43   42   43 1   
    44   42   46 1   
    45   42   47 1   
    46   43   44 2   
    47   43   48 1   
    48   48   49 1   
    49   48   56 1   
    50   49   50 1   
    51   49   52 1   
    52   49   57 1   
    53   50   51 2   
    54   50   62 1   
    55   52   53 1   
    56   52   58 1   
    57   52   59 1   
    58   53   54 1   
    59   53   55 2   
    60   54   60 1   
    61   54   61 1   
    62   62   63 1   
    63   62   66 1   
    64   63   64 1   
    65   63   67 1   
    66   63   68 1   
    67   64   65 2   
    68   64   69 1   
    69   69   70 1   
    70   69   76 1   
    71   70   71 1   
    72   70   73 1   
    73   70   77 1   
    74   71   72 2   
    75   71   83 1   
    76   73   74 1   
    77   73   75 1   
    78   73   78 1   
    79   74   80 1   
    80   74   81 1   
    81   74   82 1   
    82   75   79 1   
    83   83   84 1   
    84   83   91 1   
    85   84   85 1   
    86   84   87 1   
    87   84   92 1   
    88   85   86 2   
    89   85  102 1   
    90   87   88 1   
    91   87   89 1   
    92   87   93 1   
    93   88   90 1   
    94   88   94 1   
    95   88   95 1   
    96   89   96 1   
    97   89   97 1   
    98   89   98 1   
    99   90   99 1   
   100   90  100 1   
   101   90  101 1   
   102  102  103 1   
   103  102  110 1   
   104  103  104 1   
   105  103  106 1   
   106  103  111 1   
   107  104  105 2   
   108  104  114 1   
   109  106  107 1   
   110  106  112 1   
   111  106  113 1   
   112  107  108 1   
   113  107  109 1   
   114  114  115 1   
   115  114  125 1   
   116  115  116 1   
   117  115  118 1   
   118  115  126 1   
   119  116  117 2   
   120  116  134 1   
   121  118  119 1   
   122  118  127 1   
   123  118  128 1   
   124  119  120 ar  
   125  119  121 ar  
   126  120  122 ar  
   127  120  129 1   
   128  121  123 ar  
   129  121  130 1   
   130  122  124 ar  
   131  122  131 1   
   132  123  124 ar  
   133  123  132 1   
   134  124  133 1   
   135  134  135 1   
   136  134  140 1   
   137  135  136 1   
   138  135  138 1   
   139  135  141 1   
   140  136  137 2   
   141  136  148 1   
   142  138  139 1   
   143  138  142 1   
   144  138  143 1   
   145  139  140 1   
   146  139  144 1   
   147  139  145 1   
   148  140  146 1   
   149  140  147 1   
   150  148  149 1   
   151  148  157 1   
   152  149  150 1   
   153  149  152 1   
   154  149  158 1   
   155  150  151 2   
   156  150  163 1   
   157  152  153 1   
   158  152  159 1   
   159  152  160 1   
   160  153  154 1   
   161  153  161 1   
   162  153  162 1   
   163  154  155 1   
   164  154  156 1   
   165  163  164 1   
   166  163  168 1   
   167  164  165 1   
   168  164  166 1   
   169  164  167 1   
   170  170  171 1   
   171  170  172 1   
   172  173  174 1   
   173  173  175 1   
   174  176  177 1   
   175  176  178 1   
   176  179  180 1   
   177  179  181 1   
@<TRIPOS>SUBSTRUCTURE
     1 MOL         1 TEMP              0 ****  ****    0 ROOT
