@<TRIPOS>MOLECULE
MOL
  182   178     1     0     0
SMALL
resp


@<TRIPOS>ATOM
      1 C1          1.1990   -5.7130    5.5650 c3        1 MOL     -0.478892
      2 C2          1.2420   -4.9680    4.1840 c         1 MOL      0.776399
      3 O1          0.3680   -5.2110    3.3080 o         1 MOL     -0.665116
      4 H1          1.6310   -6.7080    5.4540 hc        1 MOL      0.133533
      5 H2          1.7720   -5.1490    6.3010 hc        1 MOL      0.133533
      6 H3          0.1650   -5.8020    5.8990 hc        1 MOL      0.133533
      7 N1          2.1230   -3.9590    4.0500 n         1 MOL     -0.654112
      8 C3          2.3100   -3.2820    2.7610 c3        1 MOL      0.114489
      9 C4          2.7720   -4.2730    1.6630 c         1 MOL      0.537839
     10 O2          3.6660   -5.0430    1.9140 o         1 MOL     -0.534951
     11 C5          3.2760   -2.1530    2.9930 c3        1 MOL     -0.056458
     12 C6          3.4710   -1.3680    1.6820 c         1 MOL      0.404075
     13 O3          4.0320   -0.2640    1.8020 o         1 MOL     -0.621149
     14 O4          3.1090   -1.7750    0.5530 o         1 MOL     -0.621149
     15 H4          2.8120   -3.8040    4.7710 hn        1 MOL      0.340867
     16 H5          1.3260   -2.9330    2.4390 h1        1 MOL      0.090790
     17 H6          4.2670   -2.5540    3.2100 hc        1 MOL      0.054926
     18 H7          2.8240   -1.5570    3.7910 hc        1 MOL      0.054926
     19 N2          1.9410   -4.4240    0.6140 n         1 MOL     -0.254896
     20 C7          2.1260   -5.4980   -0.4030 c3        1 MOL     -0.105385
     21 C8          3.5170   -5.3960   -1.1430 c         1 MOL      0.418730
     22 O5          4.0210   -6.4070   -1.6860 o         1 MOL     -0.537163
     23 C9          1.1020   -5.4240   -1.4890 c3        1 MOL     -0.179202
     24 C10        -0.3790   -5.8370   -1.0140 c3        1 MOL      0.295951
     25 C11        -1.3260   -5.9850   -2.2100 c3        1 MOL     -0.074930
     26 C12        -2.5940   -6.7720   -1.9540 c3        1 MOL     -0.000714
     27 N3         -3.2690   -6.2560   -0.7560 n4        1 MOL     -0.231997
     28 H8          1.2240   -3.7240    0.5360 hn        1 MOL      0.192637
     29 H9          2.0190   -6.4500    0.1070 h1        1 MOL      0.135502
     30 H10         1.3040   -6.1520   -2.2830 hc        1 MOL      0.066387
     31 H11         0.9830   -4.4090   -1.8670 hc        1 MOL      0.066387
     32 H12        -0.7060   -5.0530   -0.3420 hc        1 MOL     -0.067700
     33 H13        -0.3350   -6.7970   -0.4990 hc        1 MOL     -0.067700
     34 H14        -0.8750   -6.5330   -3.0330 hc        1 MOL      0.032968
     35 H15        -1.5330   -4.9680   -2.5540 hc        1 MOL      0.032968
     36 H16        -2.4460   -7.8490   -1.8730 hx        1 MOL      0.096539
     37 H17        -3.2970   -6.5950   -2.7720 hx        1 MOL      0.096539
     38 H18        -2.6000   -6.1790   -0.0060 hn        1 MOL      0.248384
     39 H19        -3.6830   -5.3330   -0.7500 hn        1 MOL      0.248384
     40 H20        -4.0200   -6.9150   -0.5650 hn        1 MOL      0.248384
     41 N4          4.0250   -4.2160   -1.3410 n         1 MOL     -0.148795
     42 C13         5.2470   -3.9720   -2.0590 c3        1 MOL     -0.063494
     43 C14         6.2510   -3.2210   -1.1430 c         1 MOL      0.440362
     44 O6          7.4670   -3.3360   -1.2780 o         1 MOL     -0.539806
     45 C15         5.0140   -3.1470   -3.3380 c3        1 MOL     -0.271878
     46 C16         4.3830   -1.7390   -3.1950 c         1 MOL      0.628473
     47 O7          4.1140   -1.1970   -2.0760 o         1 MOL     -0.665649
     48 O8          4.1160   -1.1800   -4.3230 o         1 MOL     -0.665649
     49 H21         3.6080   -3.3910   -0.9320 hn        1 MOL      0.252410
     50 H22         5.6920   -4.9310   -2.3040 h1        1 MOL      0.135259
     51 H23         4.4000   -3.7670   -3.9920 hc        1 MOL      0.107602
     52 H24         5.8900   -2.9350   -3.9490 hc        1 MOL      0.107602
     53 N5          5.7590   -2.5270   -0.0920 n         1 MOL     -0.088641
     54 C17         6.7610   -1.8820    0.7750 c3        1 MOL     -0.243577
     55 C18         7.2730   -0.5510    0.2080 c         1 MOL      0.522583
     56 O9          8.1830    0.0390    0.7530 o         1 MOL     -0.558475
     57 H25         4.7810   -2.3130    0.0130 hn        1 MOL     -0.025468
     58 H26         7.4930   -2.5150    1.2790 h1        1 MOL      0.153106
     59 H27         6.1920   -1.5030    1.6220 h1        1 MOL      0.153106
     60 N6          6.6390   -0.0800   -0.8760 n         1 MOL     -0.301605
     61 C19         6.9100    1.1640   -1.4850 c3        1 MOL      0.191040
     62 C20         5.7980    2.1860   -1.1500 c         1 MOL      0.607373
     63 O10         4.6390    1.7950   -1.1440 o         1 MOL     -0.644536
     64 C21         7.0640    0.8860   -2.9400 c3        1 MOL     -0.269412
     65 C22         7.8280    1.9390   -3.7690 c         1 MOL      0.647032
     66 N7          9.1250    1.8280   -3.8770 n         1 MOL     -0.778834
     67 O11         7.2810    2.8350   -4.3690 o         1 MOL     -0.561450
     68 H28         5.8940   -0.6240   -1.2910 hn        1 MOL      0.242922
     69 H29         7.7640    1.7160   -1.0950 h1        1 MOL     -0.020047
     70 H30         6.0310    0.7510   -3.2680 hc        1 MOL      0.100143
     71 H31         7.5970   -0.0700   -2.9880 hc        1 MOL      0.100143
     72 H32         9.5410    0.9690   -3.5690 hn        1 MOL      0.363430
     73 H33         9.5960    2.3680   -4.5890 hn        1 MOL      0.363430
     74 N8          6.0710    3.4990   -0.9420 n         1 MOL     -0.504777
     75 C23         5.0420    4.5870   -1.0300 c3        1 MOL     -0.016354
     76 C24         4.0790    4.6620    0.1970 c         1 MOL      0.555183
     77 O12         4.5630    4.6450    1.2970 o         1 MOL     -0.485274
     78 H34         7.0280    3.7820   -0.9990 hn        1 MOL      0.341139
     79 H35         4.5250    4.5190   -1.9890 h1        1 MOL      0.085425
     80 H36         5.5330    5.5390   -1.1930 h1        1 MOL      0.085425
     81 N9          2.7880    4.8250   -0.0530 n         1 MOL     -0.585784
     82 C25         1.7190    4.7500    1.0030 c3        1 MOL      0.214568
     83 C26         1.5930    3.2420    1.4840 c         1 MOL      0.536701
     84 O13         2.2250    2.3590    0.9020 o         1 MOL     -0.479210
     85 C27         0.3240    5.2530    0.4590 c3        1 MOL     -0.302739
     86 C28         0.2530    6.7560    0.3180 ca        1 MOL     -0.001909
     87 C29         0.6000    7.6470    1.3650 ca        1 MOL     -0.049289
     88 C30        -0.0190    7.3510   -0.9440 ca        1 MOL     -0.049289
     89 C31         0.4860    9.0520    1.1560 ca        1 MOL     -0.348388
     90 C32        -0.1420    8.7280   -1.1300 ca        1 MOL     -0.348388
     91 C33         0.0850    9.5770   -0.0930 ca        1 MOL      0.410532
     92 O14         0.2690   10.9180   -0.3570 oh        1 MOL     -0.479496
     93 H37         2.5290    4.9490   -1.0230 hn        1 MOL      0.312252
     94 H38         1.9870    5.4420    1.7930 h1        1 MOL      0.045813
     95 H39        -0.4480    4.9610    1.1650 hc        1 MOL      0.112161
     96 H40         0.1270    4.8710   -0.5390 hc        1 MOL      0.112161
     97 H41         0.8120    7.3780    2.3930 ha        1 MOL      0.104897
     98 H42        -0.1600    6.7040   -1.7940 ha        1 MOL      0.104897
     99 H43         0.8420    9.7580    1.8910 ha        1 MOL      0.179969
    100 H44        -0.3720    9.1760   -2.0850 ha        1 MOL      0.179969
    101 H45         0.7960   11.3100    0.3450 ho        1 MOL      0.351457
    102 N10         0.7620    3.0710    2.4710 n         1 MOL     -0.570150
    103 C34         0.3820    1.8290    3.1040 c3        1 MOL      0.118443
    104 C35        -0.0830    0.6810    2.1100 c         1 MOL      0.360038
    105 O15         0.7350    0.0130    1.4560 o         1 MOL     -0.387727
    106 C36         1.4710    1.2940    4.0270 c3        1 MOL      0.179779
    107 C37         1.0070    0.2530    5.1240 c3        1 MOL     -0.434066
    108 C38         2.1790    2.3740    4.8380 c3        1 MOL     -0.108585
    109 C39         0.0410    0.6220    6.2890 c3        1 MOL     -0.051965
    110 H46         0.2900    3.9050    2.7810 hn        1 MOL      0.331680
    111 H47        -0.4540    2.0660    3.7750 h1        1 MOL      0.058489
    112 H48         2.1880    0.7870    3.3800 hc        1 MOL      0.042177
    113 H49         1.9000   -0.1160    5.6430 hc        1 MOL      0.139737
    114 H50         0.6420   -0.6490    4.6330 hc        1 MOL      0.139737
    115 H51         1.4130    2.9900    5.2940 hc        1 MOL      0.036825
    116 H52         2.8310    1.9590    5.6030 hc        1 MOL      0.036825
    117 H53         2.7530    3.1000    4.2530 hc        1 MOL      0.036825
    118 H54        -0.9150    1.0090    5.9420 hc        1 MOL      0.033013
    119 H55        -0.2300   -0.1930    6.9520 hc        1 MOL      0.033013
    120 H56         0.5110    1.4060    6.8900 hc        1 MOL      0.033013
    121 N11        -1.3530    0.2860    2.0910 n         1 MOL     -0.435309
    122 C40        -1.8830   -0.7690    1.2200 c3        1 MOL      0.068610
    123 C41        -3.3350   -0.5840    0.7120 c         1 MOL      0.554393
    124 O16        -3.7090   -1.3130   -0.2310 o         1 MOL     -0.553845
    125 C42        -1.7220   -2.1750    1.8700 c3        1 MOL     -0.051351
    126 O17        -0.9250   -3.0400    1.1680 oh        1 MOL     -0.498656
    127 H57        -2.0150    0.8310    2.6210 hn        1 MOL      0.246286
    128 H58        -1.2880   -0.7820    0.3120 h1        1 MOL      0.132255
    129 H59        -2.6700   -2.6260    2.1470 h1        1 MOL      0.075201
    130 H60        -1.2540   -2.0850    2.8490 h1        1 MOL      0.075201
    131 H61        -1.0350   -3.8890    1.5970 ho        1 MOL      0.394866
    132 N12        -4.1470    0.2960    1.2820 n         1 MOL     -0.560772
    133 C43        -5.4630    0.5700    0.6690 c3        1 MOL      0.015358
    134 C44        -5.2980    1.3130   -0.6560 c         1 MOL      0.624873
    135 O18        -4.3980    2.1130   -0.8590 o         1 MOL     -0.566681
    136 C45        -6.3780    1.2640    1.6660 c3        1 MOL     -0.031247
    137 H62        -3.8180    0.8170    2.0780 hn        1 MOL      0.340548
    138 H63        -5.9070   -0.4090    0.4810 h1        1 MOL      0.138731
    139 H64        -5.9320    2.1440    2.1370 hc        1 MOL      0.033135
    140 H65        -7.2800    1.5510    1.1360 hc        1 MOL      0.033135
    141 H66        -6.7220    0.6590    2.5100 hc        1 MOL      0.033135
    142 N13        -6.1770    1.1460   -1.6610 n         1 MOL     -0.650359
    143 C46        -7.3790    0.3490   -1.7800 c3        1 MOL      0.600730
    144 C47        -8.5660    1.1630   -2.3460 c         1 MOL      0.309445
    145 O19        -8.3140    1.9620   -3.2480 o         1 MOL     -0.529037
    146 C48        -7.0860   -0.9260   -2.6080 c3        1 MOL     -0.350189
    147 H67        -6.0220    1.6680   -2.5190 hn        1 MOL      0.328023
    148 H68        -7.5490   -0.0260   -0.7760 h1        1 MOL     -0.131158
    149 H69        -6.4500   -0.6280   -3.4410 hc        1 MOL      0.086597
    150 H70        -6.6300   -1.7240   -2.0260 hc        1 MOL      0.086597
    151 H71        -8.0100   -1.3770   -2.9870 hc        1 MOL      0.086597
    152 N14        -9.7890    0.9790   -1.9060 n         1 MOL     -0.413571
    153 C49       -10.2310    0.0720   -0.7730 c3        1 MOL     -0.082195
    154 C50        -9.9900    0.8190    0.6160 c         1 MOL      0.342558
    155 O20        -9.5670    0.1260    1.6210 o         1 MOL     -0.497985
    156 C51       -11.7110   -0.3510   -1.0430 c3        1 MOL      0.171634
    157 C52       -11.8470   -1.4520   -2.0850 c3        1 MOL     -0.208964
    158 C53       -13.1840   -2.2260   -1.7980 c         1 MOL      0.685895
    159 O21       -14.2670   -1.6200   -1.7820 o         1 MOL     -0.658570
    160 O22       -13.1690   -3.4770   -1.5520 o         1 MOL     -0.658570
    161 H72       -10.4490    1.6100   -2.3420 hn        1 MOL      0.337242
    162 H73        -9.6570   -0.8500   -0.7860 h1        1 MOL      0.140845
    163 H74       -12.2880    0.5130   -1.3760 hc        1 MOL     -0.003699
    164 H75       -12.1740   -0.6880   -0.1220 hc        1 MOL     -0.003699
    165 H76       -11.0450   -2.1560   -1.8680 hc        1 MOL      0.011576
    166 H77       -11.7780   -1.0470   -3.0880 hc        1 MOL      0.011576
    167 N15       -10.1540    2.1290    0.6510 n         1 MOL     -0.255440
    168 C54        -9.7420    2.9920    1.8090 c3        1 MOL     -0.159231
    169 H78       -10.3530    3.8940    1.8250 h1        1 MOL      0.096526
    170 H79        -9.8810    2.4430    2.7400 h1        1 MOL      0.096526
    171 H80        -8.6920    3.2670    1.7030 h1        1 MOL      0.096526
    172 H81       -10.6940    2.6000   -0.0640 hn        1 MOL      0.261813
    173 Ca1         2.6050    0.3760   -0.6850 Ca        1 MOL      1.733370
    174 O23         2.7510    1.0200   -3.2870 oh        1 MOL     -0.861807
    175 H82         3.2990    0.3290   -3.6660 ho        1 MOL      0.409257
    176 H83         2.0350    1.1260   -3.9250 ho        1 MOL      0.409257
    177 O24         0.6540   -1.5050   -1.6430 oh        1 MOL     -0.861807
    178 H84         0.8720   -1.8870   -2.4960 ho        1 MOL      0.409257
    179 H85        -0.2800   -1.2890   -1.7110 ho        1 MOL      0.409257
    180 O25         0.3190    1.8840   -1.1630 oh        1 MOL     -0.861807
    181 H86         0.2530    2.2820   -2.0300 ho        1 MOL      0.409257
    182 H87        -0.5160    2.0940   -0.7410 ho        1 MOL      0.409257
@<TRIPOS>BOND
     1    1    2 1   
     2    1    4 1   
     3    1    5 1   
     4    1    6 1   
     5    2    3 2   
     6    2    7 1   
     7    7    8 1   
     8    7   15 1   
     9    8    9 1   
    10    8   11 1   
    11    8   16 1   
    12    9   10 2   
    13    9   19 1   
    14   11   12 1   
    15   11   17 1   
    16   11   18 1   
    17   12   13 1   
    18   12   14 1   
    19   19   20 1   
    20   19   28 1   
    21   20   21 1   
    22   20   23 1   
    23   20   29 1   
    24   21   22 2   
    25   21   41 1   
    26   23   24 1   
    27   23   30 1   
    28   23   31 1   
    29   24   25 1   
    30   24   32 1   
    31   24   33 1   
    32   25   26 1   
    33   25   34 1   
    34   25   35 1   
    35   26   27 1   
    36   26   36 1   
    37   26   37 1   
    38   27   38 1   
    39   27   39 1   
    40   27   40 1   
    41   41   42 1   
    42   41   49 1   
    43   42   43 1   
    44   42   45 1   
    45   42   50 1   
    46   43   44 2   
    47   43   53 1   
    48   45   46 1   
    49   45   51 1   
    50   45   52 1   
    51   46   47 1   
    52   46   48 1   
    53   53   54 1   
    54   53   57 1   
    55   54   55 1   
    56   54   58 1   
    57   54   59 1   
    58   55   56 2   
    59   55   60 1   
    60   60   61 1   
    61   60   68 1   
    62   61   62 1   
    63   61   64 1   
    64   61   69 1   
    65   62   63 2   
    66   62   74 1   
    67   64   65 1   
    68   64   70 1   
    69   64   71 1   
    70   65   66 1   
    71   65   67 2   
    72   66   72 1   
    73   66   73 1   
    74   74   75 1   
    75   74   78 1   
    76   75   76 1   
    77   75   79 1   
    78   75   80 1   
    79   76   77 2   
    80   76   81 1   
    81   81   82 1   
    82   81   93 1   
    83   82   83 1   
    84   82   85 1   
    85   82   94 1   
    86   83   84 2   
    87   83  102 1   
    88   85   86 1   
    89   85   95 1   
    90   85   96 1   
    91   86   87 ar  
    92   86   88 ar  
    93   87   89 ar  
    94   87   97 1   
    95   88   90 ar  
    96   88   98 1   
    97   89   91 ar  
    98   89   99 1   
    99   90   91 ar  
   100   90  100 1   
   101   91   92 1   
   102   92  101 1   
   103  102  103 1   
   104  102  110 1   
   105  103  104 1   
   106  103  106 1   
   107  103  111 1   
   108  104  105 2   
   109  104  121 1   
   110  106  107 1   
   111  106  108 1   
   112  106  112 1   
   113  107  109 1   
   114  107  113 1   
   115  107  114 1   
   116  108  115 1   
   117  108  116 1   
   118  108  117 1   
   119  109  118 1   
   120  109  119 1   
   121  109  120 1   
   122  121  122 1   
   123  121  127 1   
   124  122  123 1   
   125  122  125 1   
   126  122  128 1   
   127  123  124 2   
   128  123  132 1   
   129  125  126 1   
   130  125  129 1   
   131  125  130 1   
   132  126  131 1   
   133  132  133 1   
   134  132  137 1   
   135  133  134 1   
   136  133  136 1   
   137  133  138 1   
   138  134  135 2   
   139  134  142 1   
   140  136  139 1   
   141  136  140 1   
   142  136  141 1   
   143  142  143 1   
   144  142  147 1   
   145  143  144 1   
   146  143  146 1   
   147  143  148 1   
   148  144  145 2   
   149  144  152 1   
   150  146  149 1   
   151  146  150 1   
   152  146  151 1   
   153  152  153 1   
   154  152  161 1   
   155  153  154 1   
   156  153  156 1   
   157  153  162 1   
   158  154  155 2   
   159  154  167 1   
   160  156  157 1   
   161  156  163 1   
   162  156  164 1   
   163  157  158 1   
   164  157  165 1   
   165  157  166 1   
   166  158  159 1   
   167  158  160 1   
   168  167  168 1   
   169  167  172 1   
   170  168  169 1   
   171  168  170 1   
   172  168  171 1   
   173  174  175 1   
   174  174  176 1   
   175  177  178 1   
   176  177  179 1   
   177  180  181 1   
   178  180  182 1   
@<TRIPOS>SUBSTRUCTURE
     1 MOL         1 TEMP              0 ****  ****    0 ROOT
