@<TRIPOS>MOLECULE
MOL
  181   177     1     0     0
SMALL
resp


@<TRIPOS>ATOM
      1 C1          2.1570   -1.8820    4.3010 c3        1 MOL     -0.414470
      2 C2          3.4820   -1.8180    3.5860 c         1 MOL      0.615994
      3 O1          3.6080   -1.2770    2.4600 o         1 MOL     -0.503053
      4 H1          2.0680   -1.0320    4.9780 hc        1 MOL      0.109742
      5 H2          1.3480   -1.8510    3.5720 hc        1 MOL      0.109742
      6 H3          2.0960   -2.8080    4.8730 hc        1 MOL      0.109742
      7 N1          4.4550   -2.6360    4.0960 n         1 MOL     -0.432235
      8 C3          5.8360   -2.7440    3.6190 c3        1 MOL     -0.068425
      9 C4          6.0460   -3.1160    2.1710 c         1 MOL      0.608434
     10 O2          6.9170   -2.5600    1.4750 o         1 MOL     -0.528638
     11 C5          6.5520   -3.6860    4.5710 c3        1 MOL     -0.231730
     12 C6          7.9210   -3.0400    4.8880 c         1 MOL      0.740866
     13 O3          7.9730   -2.0450    5.6550 o         1 MOL     -0.728031
     14 O4          8.9760   -3.5500    4.4860 o         1 MOL     -0.728031
     15 H4          4.1220   -3.0750    4.9450 hn        1 MOL      0.278455
     16 H5          6.2840   -1.7720    3.7650 h1        1 MOL      0.095569
     17 H6          6.5850   -4.7360    4.2750 hc        1 MOL      0.033404
     18 H7          6.0360   -3.7850    5.5260 hc        1 MOL      0.033404
     19 N2          5.1370   -3.9310    1.7110 n         1 MOL     -0.411844
     20 C7          5.0290   -4.4520    0.3540 c3        1 MOL      0.158229
     21 C8          4.8560   -3.3410   -0.7240 c         1 MOL      0.478666
     22 O5          5.1690   -3.4950   -1.8740 o         1 MOL     -0.519378
     23 C9          6.1760   -5.4460    0.1250 c3        1 MOL     -0.270394
     24 H8          4.4910   -4.3040    2.3920 hn        1 MOL      0.239653
     25 H9          4.1450   -5.0860    0.2470 h1        1 MOL      0.092451
     26 H10         5.9320   -6.0830   -0.7160 hc        1 MOL      0.070183
     27 H11         7.1500   -4.9850   -0.0400 hc        1 MOL      0.070183
     28 H12         6.3030   -6.0500    1.0260 hc        1 MOL      0.070183
     29 N3          4.2480   -2.1820   -0.3620 n         1 MOL     -0.502936
     30 C10         3.5210   -1.1340   -1.1650 c3        1 MOL      0.065826
     31 C11         4.1820   -0.7410   -2.4920 c         1 MOL      0.649639
     32 O6          3.6180   -0.6850   -3.5670 o         1 MOL     -0.494510
     33 C12         2.0240   -1.5020   -1.3470 c3        1 MOL     -0.366811
     34 C13         1.7210   -2.9260   -1.9340 c         1 MOL      0.803954
     35 O7          1.9270   -3.1370   -3.1550 o         1 MOL     -0.730539
     36 O8          1.2350   -3.8120   -1.2160 o         1 MOL     -0.730539
     37 H13         4.1360   -2.1010    0.6380 hn        1 MOL      0.231385
     38 H14         3.4590   -0.1940   -0.6050 h1        1 MOL      0.000032
     39 H15         1.5750   -0.7420   -1.9860 hc        1 MOL      0.086933
     40 H16         1.5810   -1.4210   -0.3510 hc        1 MOL      0.086933
     41 N4          5.5280   -0.5500   -2.4300 n         1 MOL     -0.177029
     42 C14         6.2050    0.0950   -3.5370 c3        1 MOL     -0.439459
     43 C15         5.9570    1.5160   -3.8350 c         1 MOL      0.557698
     44 O9          6.4180    2.0330   -4.8730 o         1 MOL     -0.546530
     45 H17         5.9860   -0.7780   -1.5570 hn        1 MOL      0.247761
     46 H18         5.8790   -0.5130   -4.3850 h1        1 MOL      0.170721
     47 H19         7.2590    0.0090   -3.2690 h1        1 MOL      0.170721
     48 N5          5.0960    2.1900   -3.0520 n         1 MOL     -0.299746
     49 C16         4.6540    3.6150   -3.2120 c3        1 MOL      0.159251
     50 C17         4.6620    4.3110   -1.8410 c         1 MOL      0.431819
     51 O10         4.8720    3.5550   -0.8790 o         1 MOL     -0.486725
     52 C18         3.2150    3.5680   -3.7110 c3        1 MOL     -0.166053
     53 C19         3.1070    3.0420   -5.0800 c         1 MOL      0.503586
     54 N6          3.0980    1.7640   -5.2400 n         1 MOL     -0.516804
     55 O11         3.1590    3.7360   -6.0640 o         1 MOL     -0.564597
     56 H20         4.8320    1.8020   -2.1510 hn        1 MOL      0.132093
     57 H21         5.2970    4.1900   -3.8800 h1        1 MOL      0.039753
     58 H22         2.9320    4.6070   -3.8750 hc        1 MOL      0.051206
     59 H23         2.6760    2.9700   -2.9790 hc        1 MOL      0.051206
     60 H24         2.9680    1.1580   -4.4370 hn        1 MOL      0.285596
     61 H25         2.8810    1.4920   -6.1930 hn        1 MOL      0.285596
     62 N7          4.2670    5.5370   -1.7670 n         1 MOL     -0.494950
     63 C20         3.7860    6.1840   -0.5550 c3        1 MOL      0.108882
     64 C21         2.2350    6.0340   -0.4010 c         1 MOL      0.648308
     65 O12         1.5800    5.6060   -1.3360 o         1 MOL     -0.498158
     66 H26         4.0130    5.9400   -2.6590 hn        1 MOL      0.311894
     67 H27         4.0350    7.2430   -0.5220 h1        1 MOL      0.035183
     68 H28         4.3010    5.7490    0.3120 h1        1 MOL      0.035183
     69 N8          1.7460    6.6060    0.7350 n         1 MOL     -0.576476
     70 C22         0.3760    6.9110    1.0150 c3        1 MOL     -0.169162
     71 C23        -0.4600    5.7300    1.5780 c         1 MOL      0.564483
     72 O13        -1.4490    5.9170    2.1930 o         1 MOL     -0.516967
     73 C24         0.1820    8.1110    1.9970 c3        1 MOL      0.590114
     74 C25         0.4500    7.9940    3.4460 c3        1 MOL     -0.337988
     75 O14         0.9190    9.1810    1.5740 oh        1 MOL     -0.654255
     76 H29         2.4780    6.9840    1.3210 hn        1 MOL      0.265992
     77 H30        -0.1480    7.1690    0.0950 h1        1 MOL      0.108125
     78 H31        -0.8850    8.3010    1.9020 h1        1 MOL     -0.010707
     79 H32         1.8100    8.8270    1.6060 ho        1 MOL      0.374067
     80 H33         1.5260    7.8500    3.5690 hc        1 MOL      0.070209
     81 H34         0.2410    8.9760    3.8770 hc        1 MOL      0.070209
     82 H35        -0.1600    7.2220    3.9150 hc        1 MOL      0.070209
     83 N9         -0.0370    4.4950    1.2790 n         1 MOL     -0.348947
     84 C26        -0.5130    3.2770    1.9270 c3        1 MOL      0.363077
     85 C27        -0.9880    2.1800    0.8670 c         1 MOL      0.055668
     86 O15        -0.8600    2.2850   -0.3650 o         1 MOL     -0.461812
     87 C28         0.5710    2.6960    2.8710 c3        1 MOL      0.118021
     88 C29         1.9500    2.5060    2.2050 c3        1 MOL     -0.170668
     89 C30         0.7830    3.6970    4.0360 c3        1 MOL     -0.335829
     90 C31         2.0250    1.4440    1.0920 c3        1 MOL     -0.246361
     91 H36         0.6320    4.4490    0.5220 hn        1 MOL      0.203952
     92 H37        -1.3660    3.5260    2.5710 h1        1 MOL      0.019709
     93 H38         0.1680    1.7340    3.1960 hc        1 MOL      0.014495
     94 H39         2.5940    2.1240    2.9910 hc        1 MOL      0.047287
     95 H40         2.2720    3.4360    1.7370 hc        1 MOL      0.047287
     96 H41         1.3100    3.2550    4.8740 hc        1 MOL      0.072978
     97 H42         1.3630    4.5490    3.6900 hc        1 MOL      0.072978
     98 H43        -0.1790    4.1010    4.3450 hc        1 MOL      0.072978
     99 H44         1.4130    0.5910    1.3720 hc        1 MOL      0.141470
    100 H45         1.7830    1.8230    0.0950 hc        1 MOL      0.141470
    101 H46         3.0510    1.0760    1.0690 hc        1 MOL      0.141470
    102 N10        -1.4560    1.0090    1.3980 n         1 MOL     -0.381406
    103 C32        -1.7070   -0.1480    0.5610 c3        1 MOL      0.092621
    104 C33        -3.1140    0.0400   -0.1370 c         1 MOL      0.558964
    105 O16        -3.7980   -0.9590   -0.3730 o         1 MOL     -0.505002
    106 C34        -1.4580   -1.4580    1.2790 c3        1 MOL      0.041886
    107 C35        -1.3140   -2.6850    0.4160 c         1 MOL      0.429274
    108 O17        -1.4110   -2.6550   -0.8650 o         1 MOL     -0.662364
    109 O18        -1.1950   -3.8090    0.9630 o         1 MOL     -0.662364
    110 H47        -1.4100    0.8930    2.3970 hn        1 MOL      0.245267
    111 H48        -0.9900   -0.0940   -0.2600 h1        1 MOL      0.099192
    112 H49        -2.2770   -1.6230    1.9740 hc        1 MOL      0.003220
    113 H50        -0.4890   -1.2850    1.7490 hc        1 MOL      0.003220
    114 N11        -3.5270    1.3260   -0.4270 n         1 MOL     -0.678358
    115 C36        -4.8240    1.5090   -1.2270 c3        1 MOL      0.435531
    116 C37        -6.0200    0.9620   -0.4250 c         1 MOL      0.272172
    117 O19        -6.1270    1.0670    0.7860 o         1 MOL     -0.472985
    118 C38        -4.9620    2.9800   -1.6880 c3        1 MOL     -0.373760
    119 C39        -4.7610    4.0920   -0.6630 ca        1 MOL      0.255983
    120 C40        -5.7700    4.3330    0.2960 ca        1 MOL     -0.258838
    121 C41        -3.7140    5.0480   -0.7730 ca        1 MOL     -0.258838
    122 C42        -5.5810    5.3690    1.2140 ca        1 MOL     -0.035245
    123 C43        -3.5580    6.0960    0.1420 ca        1 MOL     -0.035245
    124 C44        -4.4750    6.2600    1.1490 ca        1 MOL     -0.192603
    125 H51        -2.8660    2.0710   -0.2580 hn        1 MOL      0.427470
    126 H52        -4.7240    0.9430   -2.1530 h1        1 MOL      0.008900
    127 H53        -5.9670    3.0140   -2.1060 hc        1 MOL      0.092122
    128 H54        -4.3150    3.1770   -2.5440 hc        1 MOL      0.092122
    129 H55        -6.6320    3.6780    0.3550 ha        1 MOL      0.139145
    130 H56        -2.9100    4.8720   -1.4790 ha        1 MOL      0.139145
    131 H57        -6.3220    5.5610    1.9710 ha        1 MOL      0.089256
    132 H58        -2.6970    6.7400    0.0570 ha        1 MOL      0.089256
    133 H59        -4.3010    7.0660    1.8450 ha        1 MOL      0.117923
    134 N12        -6.9110    0.2280   -1.1300 n         1 MOL     -0.044891
    135 C45        -8.2330   -0.2560   -0.6250 c3        1 MOL     -0.113655
    136 C46        -8.0150   -1.4580    0.4100 c         1 MOL      0.361444
    137 O20        -8.9800   -1.9390    0.9920 o         1 MOL     -0.514313
    138 C47        -8.9950   -0.8420   -1.8430 c3        1 MOL      0.025220
    139 C48        -7.8310   -1.2890   -2.7920 c3        1 MOL      0.010806
    140 C49        -6.8200   -0.2380   -2.4960 c3        1 MOL     -0.142387
    141 H60        -8.8550    0.4810   -0.1070 h1        1 MOL      0.092676
    142 H61        -9.7570   -1.5910   -1.6100 hc        1 MOL      0.022337
    143 H62        -9.5750   -0.0310   -2.2970 hc        1 MOL      0.022337
    144 H63        -7.4750   -2.2880   -2.5190 hc        1 MOL      0.020484
    145 H64        -8.2750   -1.2880   -3.7840 hc        1 MOL      0.020484
    146 H65        -5.8290   -0.6750   -2.6200 h1        1 MOL      0.054899
    147 H66        -6.9080    0.6700   -3.0840 h1        1 MOL      0.054899
    148 N13        -6.8160   -2.0020    0.3690 n         1 MOL     -0.173524
    149 C50        -6.3260   -2.9150    1.4290 c3        1 MOL     -0.093990
    150 C51        -5.9110   -2.2280    2.7490 c         1 MOL      0.408679
    151 O21        -6.0670   -2.8200    3.7910 o         1 MOL     -0.561078
    152 C52        -5.1210   -3.7090    0.9750 c3        1 MOL      0.086659
    153 C53        -5.5700   -4.6100   -0.1770 c3        1 MOL     -0.208136
    154 C54        -4.2090   -5.2180   -0.6130 c         1 MOL      0.638195
    155 O22        -3.6990   -4.8190   -1.7140 o         1 MOL     -0.729323
    156 O23        -3.5140   -5.9520    0.1390 o         1 MOL     -0.729323
    157 H67        -6.2110   -1.8020   -0.4180 hn        1 MOL      0.316119
    158 H68        -7.1180   -3.6250    1.6720 h1        1 MOL      0.084495
    159 H69        -4.8800   -4.3290    1.8300 hc        1 MOL      0.048744
    160 H70        -4.2540   -3.0950    0.7420 hc        1 MOL      0.048744
    161 H71        -6.0710   -4.0700   -0.9790 hc        1 MOL      0.033953
    162 H72        -6.2190   -5.4160    0.1710 hc        1 MOL      0.033953
    163 N14        -5.3110   -1.0620    2.6980 n         1 MOL     -0.007773
    164 C55        -4.9850   -0.1790    3.8410 c3        1 MOL     -0.232916
    165 H73        -5.5420   -0.5030    4.7210 h1        1 MOL      0.086313
    166 H74        -3.9170   -0.2320    4.0490 h1        1 MOL      0.086313
    167 H75        -5.2580    0.8480    3.5980 h1        1 MOL      0.086313
    168 H76        -5.3820   -0.6340    1.7860 hn        1 MOL      0.101901
    169 Ca1        -1.1300   -5.2060   -1.2600 Ca        1 MOL      1.797680
    170 O24         0.8720   -6.0690   -2.6360 oh        1 MOL     -0.865917
    171 H77         1.5100   -5.3520   -2.6150 ho        1 MOL      0.418019
    172 H78         0.7750   -6.2730   -3.5610 ho        1 MOL      0.418019
    173 O25        -0.3820   -7.0150    0.4640 oh        1 MOL     -0.865917
    174 H79        -0.9760   -7.1780    1.1910 ho        1 MOL      0.418019
    175 H80         0.2160   -7.7550    0.4650 ho        1 MOL      0.418019
    176 O26        -1.8780   -7.5030   -2.4490 oh        1 MOL     -0.865917
    177 H81        -2.3830   -8.0530   -1.8520 ho        1 MOL      0.418019
    178 H82        -1.4760   -8.1190   -3.0620 ho        1 MOL      0.418019
    179 O27        -1.2040   -4.0490   -3.6150 oh        1 MOL     -0.865917
    180 H83        -1.8060   -3.3370   -3.3910 ho        1 MOL      0.418019
    181 H84        -0.7150   -3.7170   -4.3700 ho        1 MOL      0.418019
@<TRIPOS>BOND
     1    1    2 1   
     2    1    4 1   
     3    1    5 1   
     4    1    6 1   
     5    2    3 2   
     6    2    7 1   
     7    7    8 1   
     8    7   15 1   
     9    8    9 1   
    10    8   11 1   
    11    8   16 1   
    12    9   10 2   
    13    9   19 1   
    14   11   12 1   
    15   11   17 1   
    16   11   18 1   
    17   12   13 1   
    18   12   14 1   
    19   19   20 1   
    20   19   24 1   
    21   20   21 1   
    22   20   23 1   
    23   20   25 1   
    24   21   22 2   
    25   21   29 1   
    26   23   26 1   
    27   23   27 1   
    28   23   28 1   
    29   29   30 1   
    30   29   37 1   
    31   30   31 1   
    32   30   33 1   
    33   30   38 1   
    34   31   32 2   
    35   31   41 1   
    36   33   34 1   
    37   33   39 1   
    38   33   40 1   
    39   34   35 1   
    40   34   36 1   
    41   41   42 1   
    42   41   45 1   
    43   42   43 1   
    44   42   46 1   
    45   42   47 1   
    46   43   44 2   
    47   43   48 1   
    48   48   49 1   
    49   48   56 1   
    50   49   50 1   
    51   49   52 1   
    52   49   57 1   
    53   50   51 2   
    54   50   62 1   
    55   52   53 1   
    56   52   58 1   
    57   52   59 1   
    58   53   54 1   
    59   53   55 2   
    60   54   60 1   
    61   54   61 1   
    62   62   63 1   
    63   62   66 1   
    64   63   64 1   
    65   63   67 1   
    66   63   68 1   
    67   64   65 2   
    68   64   69 1   
    69   69   70 1   
    70   69   76 1   
    71   70   71 1   
    72   70   73 1   
    73   70   77 1   
    74   71   72 2   
    75   71   83 1   
    76   73   74 1   
    77   73   75 1   
    78   73   78 1   
    79   74   80 1   
    80   74   81 1   
    81   74   82 1   
    82   75   79 1   
    83   83   84 1   
    84   83   91 1   
    85   84   85 1   
    86   84   87 1   
    87   84   92 1   
    88   85   86 2   
    89   85  102 1   
    90   87   88 1   
    91   87   89 1   
    92   87   93 1   
    93   88   90 1   
    94   88   94 1   
    95   88   95 1   
    96   89   96 1   
    97   89   97 1   
    98   89   98 1   
    99   90   99 1   
   100   90  100 1   
   101   90  101 1   
   102  102  103 1   
   103  102  110 1   
   104  103  104 1   
   105  103  106 1   
   106  103  111 1   
   107  104  105 2   
   108  104  114 1   
   109  106  107 1   
   110  106  112 1   
   111  106  113 1   
   112  107  108 1   
   113  107  109 1   
   114  114  115 1   
   115  114  125 1   
   116  115  116 1   
   117  115  118 1   
   118  115  126 1   
   119  116  117 2   
   120  116  134 1   
   121  118  119 1   
   122  118  127 1   
   123  118  128 1   
   124  119  120 ar  
   125  119  121 ar  
   126  120  122 ar  
   127  120  129 1   
   128  121  123 ar  
   129  121  130 1   
   130  122  124 ar  
   131  122  131 1   
   132  123  124 ar  
   133  123  132 1   
   134  124  133 1   
   135  134  135 1   
   136  134  140 1   
   137  135  136 1   
   138  135  138 1   
   139  135  141 1   
   140  136  137 2   
   141  136  148 1   
   142  138  139 1   
   143  138  142 1   
   144  138  143 1   
   145  139  140 1   
   146  139  144 1   
   147  139  145 1   
   148  140  146 1   
   149  140  147 1   
   150  148  149 1   
   151  148  157 1   
   152  149  150 1   
   153  149  152 1   
   154  149  158 1   
   155  150  151 2   
   156  150  163 1   
   157  152  153 1   
   158  152  159 1   
   159  152  160 1   
   160  153  154 1   
   161  153  161 1   
   162  153  162 1   
   163  154  155 1   
   164  154  156 1   
   165  163  164 1   
   166  163  168 1   
   167  164  165 1   
   168  164  166 1   
   169  164  167 1   
   170  170  171 1   
   171  170  172 1   
   172  173  174 1   
   173  173  175 1   
   174  176  177 1   
   175  176  178 1   
   176  179  180 1   
   177  179  181 1   
@<TRIPOS>SUBSTRUCTURE
     1 MOL         1 TEMP              0 ****  ****    0 ROOT
