@<TRIPOS>MOLECULE
MOL
  192   187     1     0     0
SMALL
resp


@<TRIPOS>ATOM
      1 C1          5.2120    1.1230    6.4330 c3        1 MOL     -0.160456
      2 C2          5.0840    1.2270    4.8720 c         1 MOL      0.734933
      3 O1          5.0420    2.3320    4.3190 o         1 MOL     -0.573551
      4 H1          4.6080    0.2900    6.7930 hc        1 MOL      0.029735
      5 H2          6.2550    0.9580    6.7030 hc        1 MOL      0.029735
      6 H3          4.8610    2.0490    6.8900 hc        1 MOL      0.029735
      7 N1          5.0640    0.0480    4.1670 n         1 MOL     -0.561066
      8 C3          5.1650   -0.0820    2.6640 c3        1 MOL      0.283491
      9 C4          3.8400    0.0750    1.9020 c         1 MOL      0.004718
     10 O2          3.7090   -0.4680    0.7670 o         1 MOL     -0.229935
     11 C5          5.8480   -1.4120    2.2720 c3        1 MOL     -0.217123
     12 C6          6.9930   -1.9340    3.1070 c         1 MOL      0.698743
     13 O3          7.8610   -2.6220    2.5780 o         1 MOL     -0.698268
     14 O4          6.9920   -1.8310    4.3230 o         1 MOL     -0.698268
     15 H4          5.1550   -0.8110    4.7010 hn        1 MOL      0.262971
     16 H5          5.8020    0.7380    2.3210 h1        1 MOL      0.076376
     17 H6          6.0560   -1.3390    1.2060 hc        1 MOL      0.035364
     18 H7          5.1720   -2.2670    2.3910 hc        1 MOL      0.035364
     19 N2          2.9060    0.6340    2.6360 n         1 MOL     -0.056554
     20 C7          1.4340    0.5300    2.4750 c3        1 MOL      0.193623
     21 C8          0.7160    1.8250    2.0940 c         1 MOL      0.308861
     22 O5          1.1540    2.8550    2.5970 o         1 MOL     -0.498850
     23 C9          0.8920    0.1390    3.8500 c3        1 MOL      0.046955
     24 C10         0.9660   -1.3380    4.0570 c3        1 MOL     -0.251970
     25 C11         0.3050   -1.6270    5.3540 c3        1 MOL     -0.042356
     26 C12         0.4840   -3.0860    5.7520 c3        1 MOL      0.215666
     27 N3         -0.0030   -3.2800    7.1220 n4        1 MOL     -0.465711
     28 H8          3.2240    0.9830    3.5350 hn        1 MOL      0.106527
     29 H9          1.2320   -0.2450    1.7440 h1        1 MOL      0.096982
     30 H10        -0.1950    0.2880    3.9230 hc        1 MOL     -0.001916
     31 H11         1.3670    0.6490    4.6840 hc        1 MOL     -0.001916
     32 H12         1.9990   -1.6850    4.0810 hc        1 MOL      0.093143
     33 H13         0.4120   -1.9470    3.3340 hc        1 MOL      0.093143
     34 H14        -0.7780   -1.5580    5.3320 hc        1 MOL      0.044324
     35 H15         0.7920   -0.9650    6.0750 hc        1 MOL      0.044324
     36 H16         1.5580   -3.2720    5.8300 hx        1 MOL      0.038043
     37 H17         0.0480   -3.7740    5.0220 hx        1 MOL      0.038043
     38 H18        -0.9810   -3.5050    7.1830 hn        1 MOL      0.344800
     39 H19         0.4850   -4.0350    7.5850 hn        1 MOL      0.344800
     40 H20         0.3540   -2.5700    7.7430 hn        1 MOL      0.344800
     41 N4         -0.2490    1.8960    1.2100 n         1 MOL     -0.045777
     42 C13        -0.8770    0.8020    0.4470 c3        1 MOL     -0.301788
     43 C14        -1.2810   -0.4530    1.2830 c         1 MOL      0.264000
     44 O6         -0.7320   -1.5300    1.1500 o         1 MOL     -0.493507
     45 C15        -0.2290    0.5960   -0.9440 c3        1 MOL     -0.351290
     46 C16        -0.4090    1.7620   -1.8850 c         1 MOL      0.687734
     47 O7         -0.2920    1.5470   -3.1250 o         1 MOL     -0.701961
     48 O8         -0.8710    2.8450   -1.4640 o         1 MOL     -0.701961
     49 H21        -0.5180    2.8190    0.9050 hn        1 MOL      0.146647
     50 H22        -1.8180    1.3000    0.2090 h1        1 MOL      0.073015
     51 H23        -0.6670   -0.3050   -1.3590 hc        1 MOL      0.143839
     52 H24         0.8540    0.5050   -0.8370 hc        1 MOL      0.143839
     53 N5         -2.2990   -0.2960    2.1340 n         1 MOL     -0.123944
     54 C17        -3.2490    0.8400    2.2470 c3        1 MOL      0.071425
     55 C18        -4.4670    0.6190    3.2590 c         1 MOL      0.388932
     56 O9         -4.6010   -0.3780    3.9730 o         1 MOL     -0.527014
     57 H25        -2.5320   -1.1180    2.6640 hn        1 MOL      0.196439
     58 H26        -3.7810    0.9910    1.3070 h1        1 MOL      0.051782
     59 H27        -2.6930    1.7550    2.4690 h1        1 MOL      0.051782
     60 N6         -5.4670    1.4740    3.2410 n         1 MOL     -0.387398
     61 C19        -5.7260    2.4870    2.2630 c3        1 MOL      0.273567
     62 C20        -6.6950    1.9830    1.1680 c         1 MOL      0.315876
     63 O10        -7.5190    1.1180    1.4450 o         1 MOL     -0.457037
     64 C21        -6.2950    3.8030    2.9190 c3        1 MOL     -0.164292
     65 C22        -7.4810    3.7030    3.8900 c         1 MOL      0.740363
     66 O11        -7.7100    2.5730    4.3720 o         1 MOL     -0.692390
     67 O12        -8.1610    4.7070    4.1430 o         1 MOL     -0.692390
     68 H28        -6.2770    1.2620    3.7990 hn        1 MOL      0.308784
     69 H29        -4.7740    2.7320    1.7930 h1        1 MOL     -0.095268
     70 H30        -6.5140    4.4590    2.0770 hc        1 MOL     -0.017227
     71 H31        -5.4360    4.1460    3.4900 hc        1 MOL     -0.017227
     72 N7         -6.6770    2.6250    0.0160 n         1 MOL     -0.038134
     73 C23        -7.5180    2.2740   -1.0940 c3        1 MOL     -0.486753
     74 C24        -7.0210    1.0310   -1.8560 c         1 MOL      0.706678
     75 O13        -7.8280    0.4880   -2.5810 o         1 MOL     -0.548486
     76 H32        -6.0040    3.3530   -0.1580 hn        1 MOL      0.158590
     77 H33        -7.4820    3.1910   -1.6840 h1        1 MOL      0.187742
     78 H34        -8.4770    1.9630   -0.6770 h1        1 MOL      0.187742
     79 N8         -5.7660    0.5770   -1.7150 n         1 MOL     -0.479740
     80 C25        -5.1650   -0.6040   -2.3630 c3        1 MOL     -0.012577
     81 C26        -4.2510   -1.3580   -1.4910 c         1 MOL      0.314135
     82 O14        -3.2010   -0.9370   -1.0440 o         1 MOL     -0.365410
     83 C27        -4.3480   -0.0680   -3.5690 c3        1 MOL      0.360610
     84 C28        -4.9770    1.0640   -4.3740 c3        1 MOL     -0.099954
     85 O15        -4.1880   -1.1160   -4.4740 oh        1 MOL     -0.613230
     86 H35        -5.0770    1.2240   -1.3680 hn        1 MOL      0.207848
     87 H36        -5.8750   -1.2940   -2.8130 h1        1 MOL      0.163748
     88 H37        -3.3960    0.3800   -3.2690 h1        1 MOL      0.041288
     89 H38        -3.4510   -0.8810   -5.0280 ho        1 MOL      0.406389
     90 H39        -5.1970    1.9020   -3.7100 hc        1 MOL      0.004958
     91 H40        -4.2390    1.3830   -5.1140 hc        1 MOL      0.004958
     92 H41        -5.8860    0.6400   -4.7900 hc        1 MOL      0.004958
     93 N9         -4.6290   -2.6070   -1.1570 n         1 MOL     -0.107146
     94 C29        -3.9680   -3.3900   -0.1000 c3        1 MOL     -0.725707
     95 C30        -2.8910   -4.3340   -0.5740 c         1 MOL      0.547077
     96 O16        -2.2890   -5.0580    0.2100 o         1 MOL     -0.522664
     97 C31        -5.0540   -3.9380    0.8380 c3        1 MOL      0.483583
     98 C32        -5.9770   -4.8880    0.0940 c3        1 MOL     -0.066863
     99 C33        -5.8080   -2.9080    1.6620 c3        1 MOL     -0.141831
    100 C34        -6.8520   -5.7270    1.0390 c3        1 MOL     -0.194329
    101 H42        -5.4090   -2.9970   -1.6680 hn        1 MOL      0.180486
    102 H43        -3.2580   -2.7810    0.4530 h1        1 MOL      0.300407
    103 H44        -4.5120   -4.5190    1.5880 hc        1 MOL     -0.042198
    104 H45        -5.3630   -5.6120   -0.4350 hc        1 MOL      0.047050
    105 H46        -6.7320   -4.3430   -0.4800 hc        1 MOL      0.047050
    106 H47        -6.6870   -2.5850    1.1000 hc        1 MOL      0.031997
    107 H48        -6.1050   -3.3220    2.6230 hc        1 MOL      0.031997
    108 H49        -5.2140   -2.0270    1.9000 hc        1 MOL      0.031997
    109 H50        -6.2930   -6.3950    1.7030 hc        1 MOL      0.045468
    110 H51        -7.4720   -5.0400    1.6150 hc        1 MOL      0.045468
    111 H52        -7.4510   -6.3540    0.3810 hc        1 MOL      0.045468
    112 N10        -2.4600   -4.2290   -1.8600 n         1 MOL     -0.166162
    113 C35        -1.3350   -4.9550   -2.5350 c3        1 MOL     -0.414107
    114 C36         0.1250   -4.5000   -2.1740 c         1 MOL      0.475135
    115 O17         1.0800   -5.1500   -2.7160 o         1 MOL     -0.543282
    116 C37        -1.5890   -5.0300   -4.0370 c3        1 MOL      0.457718
    117 C38        -1.6570   -3.6990   -4.6200 c3        1 MOL     -0.125784
    118 O18        -2.7640   -5.6920   -4.2210 oh        1 MOL     -0.656187
    119 H53        -2.8330   -3.4690   -2.4000 hn        1 MOL      0.196826
    120 H54        -1.4450   -5.9320   -2.0660 h1        1 MOL      0.173767
    121 H55        -0.8260   -5.5890   -4.5770 h1        1 MOL      0.012980
    122 H56        -2.5420   -6.6190   -4.3380 ho        1 MOL      0.395350
    123 H57        -1.0940   -3.0520   -3.9350 hc        1 MOL      0.028337
    124 H58        -1.2190   -3.7170   -5.6140 hc        1 MOL      0.028337
    125 H59        -2.6460   -3.2440   -4.7280 hc        1 MOL      0.028337
    126 N11         0.2780   -3.4740   -1.3070 n         1 MOL     -0.157918
    127 C39         1.5700   -2.9300   -0.8880 c3        1 MOL     -0.153768
    128 C40         2.3040   -2.2100   -2.0760 c         1 MOL      0.564315
    129 O19         1.8500   -2.1490   -3.1980 o         1 MOL     -0.505113
    130 C41         2.4240   -3.9860   -0.1530 c3        1 MOL      0.350150
    131 C42         1.7370   -4.5640    1.1120 c3        1 MOL     -0.290025
    132 O20         3.6700   -3.5440    0.2990 oh        1 MOL     -0.610045
    133 H60        -0.5300   -2.8940   -1.1300 hn        1 MOL      0.264464
    134 H61         1.3130   -2.1160   -0.2130 h1        1 MOL      0.028295
    135 H62         2.7020   -4.8250   -0.7880 h1        1 MOL      0.069764
    136 H63         3.5810   -3.0340    1.1050 ho        1 MOL      0.369986
    137 H64         2.5040   -5.1430    1.6360 hc        1 MOL      0.066768
    138 H65         1.3890   -3.8160    1.8150 hc        1 MOL      0.066768
    139 H66         0.9260   -5.2190    0.8140 hc        1 MOL      0.066768
    140 N12         3.4760   -1.5990   -1.7930 n         1 MOL     -0.365080
    141 C43         4.1320   -0.7000   -2.8190 c3        1 MOL      0.025182
    142 C44         3.9550    0.7800   -2.6730 c         1 MOL      0.429899
    143 O21         4.1900    1.5650   -3.6020 o         1 MOL     -0.603019
    144 C45         5.5380   -1.1180   -3.2010 c3        1 MOL     -0.017957
    145 C46         6.5290   -0.9420   -2.0830 c3        1 MOL     -0.007502
    146 C47         8.0220   -1.3140   -2.3870 c3        1 MOL     -0.060314
    147 C48         8.2380   -2.7930   -2.8930 c3        1 MOL      0.157306
    148 N13         9.5990   -3.1170   -3.3070 n4        1 MOL     -0.531260
    149 H67         3.8340   -1.6470   -0.8570 hn        1 MOL      0.134610
    150 H68         3.6010   -0.8120   -3.7590 h1        1 MOL      0.096959
    151 H69         5.9320   -0.6040   -4.0720 hc        1 MOL      0.016437
    152 H70         5.5340   -2.1750   -3.4900 hc        1 MOL      0.016437
    153 H71         6.2320   -1.5180   -1.2170 hc        1 MOL      0.052745
    154 H72         6.4870    0.0790   -1.6980 hc        1 MOL      0.052745
    155 H73         8.6460   -1.2170   -1.4970 hc        1 MOL      0.030982
    156 H74         8.3490   -0.6380   -3.1800 hc        1 MOL      0.030982
    157 H75         7.5750   -2.9400   -3.7480 hx        1 MOL      0.057135
    158 H76         7.9710   -3.4380   -2.0560 hx        1 MOL      0.057135
    159 H77         9.7580   -4.1090   -3.4030 hn        1 MOL      0.367755
    160 H78         9.8630   -2.7190   -4.1970 hn        1 MOL      0.367755
    161 H79        10.1650   -2.8540   -2.5160 hn        1 MOL      0.367755
    162 N14         3.6830    1.3260   -1.4990 n         1 MOL      0.010924
    163 C49         3.8640    2.7530   -1.1180 c3        1 MOL     -0.064177
    164 C50         5.2940    2.9740   -0.5280 c         1 MOL      0.344634
    165 O22         5.7610    2.2190    0.2800 o         1 MOL     -0.430026
    166 C51         2.7650    3.2300   -0.1110 c3        1 MOL      0.599632
    167 C52         2.9410    4.6860    0.2580 c3        1 MOL     -0.874399
    168 C53         2.8600    5.5990   -1.0070 c         1 MOL      0.803339
    169 O23         3.8720    6.2000   -1.4080 o         1 MOL     -0.745712
    170 O24         1.7790    5.7140   -1.6220 o         1 MOL     -0.745712
    171 H80         3.6030    0.7590   -0.6720 hn        1 MOL     -0.031494
    172 H81         3.7540    3.2890   -2.0640 h1        1 MOL      0.022060
    173 H82         2.9040    2.6750    0.8200 hc        1 MOL     -0.168602
    174 H83         1.7630    3.0900   -0.5180 hc        1 MOL     -0.168602
    175 H84         3.8920    4.8810    0.7740 hc        1 MOL      0.251920
    176 H85         2.1780    4.9190    0.9910 hc        1 MOL      0.251920
    177 N15         5.9820    4.0740   -0.9550 n         1 MOL     -0.384018
    178 C54         7.2650    4.5770   -0.5400 c3        1 MOL      0.135659
    179 H86         7.8990    4.7190   -1.4150 h1        1 MOL      0.010175
    180 H87         7.1340    5.5300   -0.0270 h1        1 MOL      0.010175
    181 H88         7.7340    3.8620    0.1360 h1        1 MOL      0.010175
    182 H89         5.4670    4.6800   -1.5810 hn        1 MOL      0.382751
    183 Ca1        -0.6880    5.2340   -2.1340 Ca        1 MOL      1.721278
    184 O25         0.6650    3.9110   -3.9260 oh        1 MOL     -0.903454
    185 H90         1.6000    3.7870   -4.1120 ho        1 MOL      0.453769
    186 H91         0.3330    3.0310   -3.8000 ho        1 MOL      0.453769
    187 O26        -0.9230    6.4690   -4.4230 oh        1 MOL     -0.903454
    188 H92        -0.3700    7.2140   -4.6240 ho        1 MOL      0.453769
    189 H93        -1.0200    6.0080   -5.2550 ho        1 MOL      0.453769
    190 O27        -2.3790    3.9840   -3.8350 oh        1 MOL     -0.903454
    191 H94        -3.0180    4.2410   -4.4950 ho        1 MOL      0.453769
    192 H95        -2.6890    3.1340   -3.5120 ho        1 MOL      0.453769
@<TRIPOS>BOND
     1    1    2 1   
     2    1    4 1   
     3    1    5 1   
     4    1    6 1   
     5    2    3 2   
     6    2    7 1   
     7    7    8 1   
     8    7   15 1   
     9    8    9 1   
    10    8   11 1   
    11    8   16 1   
    12    9   10 2   
    13    9   19 1   
    14   11   12 1   
    15   11   17 1   
    16   11   18 1   
    17   12   13 1   
    18   12   14 1   
    19   19   20 1   
    20   19   28 1   
    21   20   21 1   
    22   20   23 1   
    23   20   29 1   
    24   21   22 2   
    25   21   41 1   
    26   23   24 1   
    27   23   30 1   
    28   23   31 1   
    29   24   25 1   
    30   24   32 1   
    31   24   33 1   
    32   25   26 1   
    33   25   34 1   
    34   25   35 1   
    35   26   27 1   
    36   26   36 1   
    37   26   37 1   
    38   27   38 1   
    39   27   39 1   
    40   27   40 1   
    41   41   42 1   
    42   41   49 1   
    43   42   43 1   
    44   42   45 1   
    45   42   50 1   
    46   43   44 2   
    47   43   53 1   
    48   45   46 1   
    49   45   51 1   
    50   45   52 1   
    51   46   47 1   
    52   46   48 1   
    53   53   54 1   
    54   53   57 1   
    55   54   55 1   
    56   54   58 1   
    57   54   59 1   
    58   55   56 2   
    59   55   60 1   
    60   60   61 1   
    61   60   68 1   
    62   61   62 1   
    63   61   64 1   
    64   61   69 1   
    65   62   63 2   
    66   62   72 1   
    67   64   65 1   
    68   64   70 1   
    69   64   71 1   
    70   65   66 1   
    71   65   67 1   
    72   72   73 1   
    73   72   76 1   
    74   73   74 1   
    75   73   77 1   
    76   73   78 1   
    77   74   75 2   
    78   74   79 1   
    79   79   80 1   
    80   79   86 1   
    81   80   81 1   
    82   80   83 1   
    83   80   87 1   
    84   81   82 2   
    85   81   93 1   
    86   83   84 1   
    87   83   85 1   
    88   83   88 1   
    89   84   90 1   
    90   84   91 1   
    91   84   92 1   
    92   85   89 1   
    93   93   94 1   
    94   93  101 1   
    95   94   95 1   
    96   94   97 1   
    97   94  102 1   
    98   95   96 2   
    99   95  112 1   
   100   97   98 1   
   101   97   99 1   
   102   97  103 1   
   103   98  100 1   
   104   98  104 1   
   105   98  105 1   
   106   99  106 1   
   107   99  107 1   
   108   99  108 1   
   109  100  109 1   
   110  100  110 1   
   111  100  111 1   
   112  112  113 1   
   113  112  119 1   
   114  113  114 1   
   115  113  116 1   
   116  113  120 1   
   117  114  115 2   
   118  114  126 1   
   119  116  117 1   
   120  116  118 1   
   121  116  121 1   
   122  117  123 1   
   123  117  124 1   
   124  117  125 1   
   125  118  122 1   
   126  126  127 1   
   127  126  133 1   
   128  127  128 1   
   129  127  130 1   
   130  127  134 1   
   131  128  129 2   
   132  128  140 1   
   133  130  131 1   
   134  130  132 1   
   135  130  135 1   
   136  131  137 1   
   137  131  138 1   
   138  131  139 1   
   139  132  136 1   
   140  140  141 1   
   141  140  149 1   
   142  141  142 1   
   143  141  144 1   
   144  141  150 1   
   145  142  143 2   
   146  142  162 1   
   147  144  145 1   
   148  144  151 1   
   149  144  152 1   
   150  145  146 1   
   151  145  153 1   
   152  145  154 1   
   153  146  147 1   
   154  146  155 1   
   155  146  156 1   
   156  147  148 1   
   157  147  157 1   
   158  147  158 1   
   159  148  159 1   
   160  148  160 1   
   161  148  161 1   
   162  162  163 1   
   163  162  171 1   
   164  163  164 1   
   165  163  166 1   
   166  163  172 1   
   167  164  165 2   
   168  164  177 1   
   169  166  167 1   
   170  166  173 1   
   171  166  174 1   
   172  167  168 1   
   173  167  175 1   
   174  167  176 1   
   175  168  169 1   
   176  168  170 1   
   177  177  178 1   
   178  177  182 1   
   179  178  179 1   
   180  178  180 1   
   181  178  181 1   
   182  184  185 1   
   183  184  186 1   
   184  187  188 1   
   185  187  189 1   
   186  190  191 1   
   187  190  192 1   
@<TRIPOS>SUBSTRUCTURE
     1 MOL         1 TEMP              0 ****  ****    0 ROOT
