@<TRIPOS>MOLECULE
MOL
  192   187     1     0     0
SMALL
resp


@<TRIPOS>ATOM
      1 C1         12.5130    5.4780   -2.3800 c3        1 MOL     -0.441309
      2 C2         12.2270    4.1660   -1.6140 c         1 MOL      0.764800
      3 O1         13.1820    3.4920   -1.2070 o         1 MOL     -0.564473
      4 H1         12.6840    6.2840   -1.6670 hc        1 MOL      0.114781
      5 H2         13.3990    5.3500   -3.0020 hc        1 MOL      0.114781
      6 H3         11.6590    5.7250   -3.0100 hc        1 MOL      0.114781
      7 N1         10.9370    3.8820   -1.2870 n         1 MOL     -0.486674
      8 C3         10.6280    2.6230   -0.4230 c3        1 MOL     -0.455893
      9 C4          9.2950    1.9680   -0.7330 c         1 MOL      0.909260
     10 O2          8.2420    2.6430   -0.8260 o         1 MOL     -0.703706
     11 C5         10.7010    2.8390    1.0910 c3        1 MOL     -0.022372
     12 C6          9.9680    3.9890    1.6530 c         1 MOL      0.665412
     13 O3         10.1860    4.2770    2.8720 o         1 MOL     -0.680726
     14 O4          9.1540    4.7660    0.9850 o         1 MOL     -0.680726
     15 H4         10.2200    4.4800   -1.6630 hn        1 MOL      0.220705
     16 H5         11.3880    1.8620   -0.5810 h1        1 MOL      0.159659
     17 H6         11.7650    2.9480    1.3130 hc        1 MOL      0.091683
     18 H7         10.5590    1.8740    1.5680 hc        1 MOL      0.091683
     19 N2          9.2860    0.6250   -0.8690 n         1 MOL     -0.630079
     20 C7          8.0900   -0.1890   -1.0480 c3        1 MOL      0.206953
     21 C8          7.2720   -0.3630    0.2260 c         1 MOL      0.438360
     22 O5          7.9150   -0.8260    1.2010 o         1 MOL     -0.487503
     23 C9          8.5320   -1.4360   -1.7180 c3        1 MOL     -0.422417
     24 C10         7.5520   -2.5780   -1.6260 c3        1 MOL      0.300677
     25 C11         7.9650   -3.6750   -2.5470 c3        1 MOL     -0.267222
     26 C12         6.8940   -4.7560   -2.5410 c3        1 MOL      0.222235
     27 N3          6.9830   -5.7260   -1.4390 n4        1 MOL     -0.432647
     28 H8         10.0740    0.0910   -0.5300 hn        1 MOL      0.348624
     29 H9          7.4470    0.2760   -1.8040 h1        1 MOL      0.033161
     30 H10         9.5180   -1.8650   -1.5010 hc        1 MOL      0.118195
     31 H11         8.5820   -1.1650   -2.7730 hc        1 MOL      0.118195
     32 H12         6.5840   -2.1710   -1.9080 hc        1 MOL     -0.017493
     33 H13         7.4750   -3.0320   -0.6330 hc        1 MOL     -0.017493
     34 H14         8.8720   -4.1180   -2.1300 hc        1 MOL      0.089203
     35 H15         7.9440   -3.3690   -3.5890 hc        1 MOL      0.089203
     36 H16         7.0190   -5.3020   -3.4780 hx        1 MOL      0.017204
     37 H17         5.8660   -4.3850   -2.5480 hx        1 MOL      0.017204
     38 H18         6.7770   -5.2260   -0.5910 hn        1 MOL      0.325812
     39 H19         6.3660   -6.5220   -1.5370 hn        1 MOL      0.325812
     40 H20         7.9340   -6.0710   -1.3820 hn        1 MOL      0.325812
     41 N4          5.9790    0.0210    0.1740 n         1 MOL     -0.421336
     42 C13         4.8010   -0.1000    1.1750 c3        1 MOL      0.028402
     43 C14         3.4350   -0.2050    0.4340 c         1 MOL      0.346499
     44 O6          3.3370    0.2470   -0.7530 o         1 MOL     -0.503582
     45 C15         4.8660    1.1350    2.1820 c3        1 MOL     -0.101465
     46 C16         5.3630    2.4130    1.5800 c         1 MOL      0.661819
     47 O7          6.4460    2.8310    1.9310 o         1 MOL     -0.672569
     48 O8          4.7030    3.0810    0.7900 o         1 MOL     -0.672569
     49 H21         5.6990    0.1770   -0.7810 hn        1 MOL      0.239032
     50 H22         4.8510   -1.0000    1.7840 h1        1 MOL      0.107429
     51 H23         5.4900    0.8080    3.0070 hc        1 MOL      0.067706
     52 H24         3.9170    1.2830    2.7040 hc        1 MOL      0.067706
     53 N5          2.3620   -0.8880    0.9320 n         1 MOL     -0.276926
     54 C17         2.2540   -1.4430    2.2810 c3        1 MOL     -0.189911
     55 C18         2.5080   -2.9550    2.3360 c         1 MOL      0.709082
     56 O9          3.0090   -3.4660    1.3720 o         1 MOL     -0.572080
     57 H25         1.6660   -1.0820    0.2370 hn        1 MOL      0.293592
     58 H26         1.3160   -1.1420    2.7540 h1        1 MOL      0.098911
     59 H27         2.8730   -0.9750    3.0510 h1        1 MOL      0.098911
     60 N6          1.9670   -3.5920    3.3810 n         1 MOL     -0.707100
     61 C19         2.1210   -5.0490    3.6830 c3        1 MOL      0.249507
     62 C20         1.1200   -5.8810    2.9280 c         1 MOL      0.390963
     63 O10         1.4920   -6.9850    2.5330 o         1 MOL     -0.531315
     64 C21         1.9410   -5.2480    5.2420 c3        1 MOL     -0.159790
     65 C22         2.8040   -4.3220    6.1080 c         1 MOL      0.673388
     66 O11         3.8270   -3.7430    5.6240 o         1 MOL     -0.657310
     67 O12         2.5600   -4.2050    7.3520 o         1 MOL     -0.657310
     68 H28         1.4730   -3.0280    4.0640 hn        1 MOL      0.349085
     69 H29         3.0840   -5.4810    3.4180 h1        1 MOL      0.059952
     70 H30         2.1220   -6.2930    5.4890 hc        1 MOL      0.017918
     71 H31         0.8850   -5.0430    5.4420 hc        1 MOL      0.017918
     72 N7         -0.1180   -5.4220    2.5870 n         1 MOL     -0.201705
     73 C23        -1.0990   -6.1820    1.8380 c3        1 MOL     -0.183146
     74 C24        -1.0830   -5.8160    0.3760 c         1 MOL      0.549455
     75 O13        -1.8800   -6.3540   -0.3910 o         1 MOL     -0.595663
     76 H32        -0.4590   -4.5810    3.0320 hn        1 MOL      0.236204
     77 H33        -2.1170   -5.9080    2.0770 h1        1 MOL      0.113581
     78 H34        -0.9630   -7.2460    2.0370 h1        1 MOL      0.113581
     79 N8         -0.2390   -4.9650   -0.1240 n         1 MOL     -0.095539
     80 C25        -0.2750   -4.3470   -1.4690 c3        1 MOL      0.010581
     81 C26        -0.2200   -2.7800   -1.3350 c         1 MOL      0.542820
     82 O14        -0.0620   -2.2950   -0.2250 o         1 MOL     -0.509266
     83 C27         0.7320   -4.8840   -2.4610 c3        1 MOL      0.080688
     84 C28         2.1410   -5.0500   -1.9390 c3        1 MOL     -0.135210
     85 O15         0.2970   -6.1300   -2.8930 oh        1 MOL     -0.567740
     86 H35         0.3600   -4.5020    0.5460 hn        1 MOL      0.047137
     87 H36        -1.2370   -4.5300   -1.9640 h1        1 MOL      0.074155
     88 H37         0.7550   -4.1440   -3.2570 h1        1 MOL      0.058896
     89 H38        -0.5230   -6.1100   -3.3850 ho        1 MOL      0.395907
     90 H39         2.4960   -4.1910   -1.3580 hc        1 MOL      0.058543
     91 H40         2.4960   -5.9520   -1.4450 hc        1 MOL      0.058543
     92 H41         2.7890   -5.0810   -2.8120 hc        1 MOL      0.058543
     93 N9         -0.3830   -1.9780   -2.3980 n         1 MOL     -0.357131
     94 C29        -0.5910   -0.5160   -2.4610 c3        1 MOL     -0.029017
     95 C30        -1.9480   -0.1280   -1.8850 c         1 MOL      0.626493
     96 O16        -2.0870    1.0480   -1.4220 o         1 MOL     -0.549169
     97 C31        -0.5150   -0.0710   -3.9820 c3        1 MOL      0.152048
     98 C32         0.6890   -0.6440   -4.7560 c3        1 MOL     -0.045442
     99 C33        -0.5350    1.4550   -4.1670 c3        1 MOL     -0.361104
    100 C34         2.0410   -0.1040   -4.2930 c3        1 MOL     -0.282217
    101 H42        -0.5220   -2.4520   -3.2840 hn        1 MOL      0.191490
    102 H43         0.1860   -0.0980   -1.8210 h1        1 MOL      0.082470
    103 H44        -1.3960   -0.5510   -4.4150 hc        1 MOL     -0.019983
    104 H45         0.5670   -0.2630   -5.7670 hc        1 MOL      0.019499
    105 H46         0.7590   -1.7220   -4.8470 hc        1 MOL      0.019499
    106 H47        -0.2040    1.7560   -5.1630 hc        1 MOL      0.111321
    107 H48        -1.6000    1.6340   -4.0190 hc        1 MOL      0.111321
    108 H49         0.0460    1.9420   -3.3860 hc        1 MOL      0.111321
    109 H50         2.3630   -0.6270   -3.3840 hc        1 MOL      0.080920
    110 H51         2.6700   -0.4270   -5.1280 hc        1 MOL      0.080920
    111 H52         1.9980    0.9750   -4.4330 hc        1 MOL      0.080920
    112 N10        -2.8970   -1.0360   -1.7350 n         1 MOL     -0.446552
    113 C35        -4.1330   -0.9660   -0.9680 c3        1 MOL     -0.102454
    114 C36        -5.3190   -1.5030   -1.7730 c         1 MOL      0.662968
    115 O17        -5.2410   -2.4620   -2.5600 o         1 MOL     -0.555646
    116 C37        -4.0230   -1.5850    0.4800 c3        1 MOL      0.377442
    117 C38        -3.9110   -3.1050    0.4390 c3        1 MOL     -0.210465
    118 O18        -3.0390   -1.1710    1.3410 oh        1 MOL     -0.592171
    119 H53        -2.6450   -1.9930   -1.9370 hn        1 MOL      0.217179
    120 H54        -4.3650    0.0760   -0.7870 h1        1 MOL      0.089875
    121 H55        -4.9760   -1.3280    0.9390 h1        1 MOL     -0.018217
    122 H56        -3.4170   -0.6550    2.0590 ho        1 MOL      0.403702
    123 H57        -3.1760   -3.4650    1.1650 hc        1 MOL      0.044368
    124 H58        -4.8750   -3.5310    0.7210 hc        1 MOL      0.044368
    125 H59        -3.5280   -3.4900   -0.5080 hc        1 MOL      0.044368
    126 N11        -6.4910   -0.9320   -1.6290 n         1 MOL     -0.462569
    127 C39        -7.7480   -1.4540   -2.2750 c3        1 MOL     -0.079871
    128 C40        -8.7710   -0.3430   -2.4070 c         1 MOL      0.602584
    129 O19        -9.2360   -0.0120   -3.4620 o         1 MOL     -0.530275
    130 C41        -8.4210   -2.7120   -1.5750 c3        1 MOL      0.333508
    131 C42        -9.8940   -3.0420   -1.7420 c3        1 MOL     -0.439841
    132 O20        -8.2970   -2.5010   -0.1980 oh        1 MOL     -0.636354
    133 H60        -6.5440   -0.2350   -0.8980 hn        1 MOL      0.263804
    134 H61        -7.4740   -1.7090   -3.2950 h1        1 MOL      0.114888
    135 H62        -7.8100   -3.5960   -1.7920 h1        1 MOL      0.054353
    136 H63        -8.9640   -2.9950    0.2770 ho        1 MOL      0.401164
    137 H64       -10.1290   -3.9130   -1.1330 hc        1 MOL      0.118701
    138 H65       -10.5110   -2.1670   -1.5600 hc        1 MOL      0.118701
    139 H66        -9.8960   -3.3600   -2.7830 hc        1 MOL      0.118701
    140 N12        -9.0230    0.3660   -1.2620 n         1 MOL     -0.374193
    141 C43        -9.9090    1.4720   -1.0650 c3        1 MOL     -0.007502
    142 C44        -9.4340    2.1670    0.1240 c         1 MOL      0.555136
    143 O21        -8.9770    1.5470    1.0480 o         1 MOL     -0.501811
    144 C45       -11.4060    1.2070   -1.0570 c3        1 MOL     -0.354136
    145 C46       -11.9410    0.4990    0.1430 c3        1 MOL     -0.032914
    146 C47       -13.2510   -0.1400   -0.2430 c3        1 MOL     -0.039010
    147 C48       -13.8730   -1.0340    0.8570 c3        1 MOL     -0.024529
    148 N13       -14.5080   -0.2070    1.9020 n4        1 MOL     -0.337552
    149 H67        -8.5530    0.0310   -0.4340 hn        1 MOL      0.223522
    150 H68        -9.7360    2.2150   -1.8520 h1        1 MOL      0.093714
    151 H69       -11.7810    0.6280   -1.9080 hc        1 MOL      0.133165
    152 H70       -11.9120    2.1660   -1.1440 hc        1 MOL      0.133165
    153 H71       -11.9490    1.1110    1.0390 hc        1 MOL      0.058841
    154 H72       -11.2320   -0.2690    0.4370 hc        1 MOL      0.058841
    155 H73       -13.1830   -0.8130   -1.1030 hc        1 MOL      0.056013
    156 H74       -13.9400    0.6410   -0.5570 hc        1 MOL      0.056013
    157 H75       -13.0770   -1.6760    1.2260 hx        1 MOL      0.099793
    158 H76       -14.5000   -1.7860    0.3690 hx        1 MOL      0.099793
    159 H77       -14.8530   -0.7090    2.7100 hn        1 MOL      0.274212
    160 H78       -13.8050    0.3910    2.2940 hn        1 MOL      0.274212
    161 H79       -15.2920    0.2990    1.5050 hn        1 MOL      0.274212
    162 N14        -9.4870    3.4920    0.2040 n         1 MOL     -0.416202
    163 C49        -8.8020    4.2930    1.2420 c3        1 MOL      0.107450
    164 C50        -7.3050    3.9660    1.4000 c         1 MOL      0.362863
    165 O22        -6.9280    3.6340    2.5540 o         1 MOL     -0.527427
    166 C51        -9.0810    5.8010    0.8770 c3        1 MOL     -0.064538
    167 C52        -8.8070    6.6640    2.1470 c3        1 MOL     -0.206948
    168 C53        -9.5760    7.9300    2.0860 c         1 MOL      0.731714
    169 O23       -10.6850    7.9460    2.5490 o         1 MOL     -0.670294
    170 O24        -9.0720    8.8800    1.4430 o         1 MOL     -0.670294
    171 H80       -10.1860    3.9300   -0.3830 hn        1 MOL      0.233078
    172 H81        -9.3000    4.0050    2.1700 h1        1 MOL      0.080020
    173 H82       -10.1100    6.0030    0.5830 hc        1 MOL      0.061112
    174 H83        -8.4330    6.1110    0.0550 hc        1 MOL      0.061112
    175 H84        -7.7420    6.8690    2.1960 hc        1 MOL      0.046048
    176 H85        -9.1940    6.1450    3.0220 hc        1 MOL      0.046048
    177 N15        -6.3810    3.9510    0.4260 n         1 MOL     -0.296276
    178 C54        -6.6100    4.2370   -0.9560 c3        1 MOL      0.115484
    179 H86        -6.0560    5.1320   -1.2380 h1        1 MOL     -0.002488
    180 H87        -6.2750    3.3950   -1.5620 h1        1 MOL     -0.002488
    181 H88        -7.6750    4.4030   -1.1220 h1        1 MOL     -0.002488
    182 H89        -5.4940    3.5280    0.6200 hn        1 MOL      0.277548
    183 Ca1         6.7660    4.5910    0.0270 Ca        1 MOL      1.723122
    184 O25         4.4680    5.8240   -0.6080 oh        1 MOL     -0.870296
    185 H90         3.6380    5.3990   -0.4040 ho        1 MOL      0.427824
    186 H91         4.2850    6.3550   -1.3880 ho        1 MOL      0.427824
    187 O26         5.8790    3.1380   -2.1730 oh        1 MOL     -0.870296
    188 H92         6.4880    3.3490   -2.8850 ho        1 MOL      0.427824
    189 H93         5.6110    2.2320   -2.3400 ho        1 MOL      0.427824
    190 O27         6.4160    6.1660    2.0990 oh        1 MOL     -0.870296
    191 H94         7.0690    6.7280    2.5280 ho        1 MOL      0.427824
    192 H95         5.5910    6.6370    2.2040 ho        1 MOL      0.427824
@<TRIPOS>BOND
     1    1    2 1   
     2    1    4 1   
     3    1    5 1   
     4    1    6 1   
     5    2    3 2   
     6    2    7 1   
     7    7    8 1   
     8    7   15 1   
     9    8    9 1   
    10    8   11 1   
    11    8   16 1   
    12    9   10 2   
    13    9   19 1   
    14   11   12 1   
    15   11   17 1   
    16   11   18 1   
    17   12   13 1   
    18   12   14 1   
    19   19   20 1   
    20   19   28 1   
    21   20   21 1   
    22   20   23 1   
    23   20   29 1   
    24   21   22 2   
    25   21   41 1   
    26   23   24 1   
    27   23   30 1   
    28   23   31 1   
    29   24   25 1   
    30   24   32 1   
    31   24   33 1   
    32   25   26 1   
    33   25   34 1   
    34   25   35 1   
    35   26   27 1   
    36   26   36 1   
    37   26   37 1   
    38   27   38 1   
    39   27   39 1   
    40   27   40 1   
    41   41   42 1   
    42   41   49 1   
    43   42   43 1   
    44   42   45 1   
    45   42   50 1   
    46   43   44 2   
    47   43   53 1   
    48   45   46 1   
    49   45   51 1   
    50   45   52 1   
    51   46   47 1   
    52   46   48 1   
    53   53   54 1   
    54   53   57 1   
    55   54   55 1   
    56   54   58 1   
    57   54   59 1   
    58   55   56 2   
    59   55   60 1   
    60   60   61 1   
    61   60   68 1   
    62   61   62 1   
    63   61   64 1   
    64   61   69 1   
    65   62   63 2   
    66   62   72 1   
    67   64   65 1   
    68   64   70 1   
    69   64   71 1   
    70   65   66 1   
    71   65   67 1   
    72   72   73 1   
    73   72   76 1   
    74   73   74 1   
    75   73   77 1   
    76   73   78 1   
    77   74   75 2   
    78   74   79 1   
    79   79   80 1   
    80   79   86 1   
    81   80   81 1   
    82   80   83 1   
    83   80   87 1   
    84   81   82 2   
    85   81   93 1   
    86   83   84 1   
    87   83   85 1   
    88   83   88 1   
    89   84   90 1   
    90   84   91 1   
    91   84   92 1   
    92   85   89 1   
    93   93   94 1   
    94   93  101 1   
    95   94   95 1   
    96   94   97 1   
    97   94  102 1   
    98   95   96 2   
    99   95  112 1   
   100   97   98 1   
   101   97   99 1   
   102   97  103 1   
   103   98  100 1   
   104   98  104 1   
   105   98  105 1   
   106   99  106 1   
   107   99  107 1   
   108   99  108 1   
   109  100  109 1   
   110  100  110 1   
   111  100  111 1   
   112  112  113 1   
   113  112  119 1   
   114  113  114 1   
   115  113  116 1   
   116  113  120 1   
   117  114  115 2   
   118  114  126 1   
   119  116  117 1   
   120  116  118 1   
   121  116  121 1   
   122  117  123 1   
   123  117  124 1   
   124  117  125 1   
   125  118  122 1   
   126  126  127 1   
   127  126  133 1   
   128  127  128 1   
   129  127  130 1   
   130  127  134 1   
   131  128  129 2   
   132  128  140 1   
   133  130  131 1   
   134  130  132 1   
   135  130  135 1   
   136  131  137 1   
   137  131  138 1   
   138  131  139 1   
   139  132  136 1   
   140  140  141 1   
   141  140  149 1   
   142  141  142 1   
   143  141  144 1   
   144  141  150 1   
   145  142  143 2   
   146  142  162 1   
   147  144  145 1   
   148  144  151 1   
   149  144  152 1   
   150  145  146 1   
   151  145  153 1   
   152  145  154 1   
   153  146  147 1   
   154  146  155 1   
   155  146  156 1   
   156  147  148 1   
   157  147  157 1   
   158  147  158 1   
   159  148  159 1   
   160  148  160 1   
   161  148  161 1   
   162  162  163 1   
   163  162  171 1   
   164  163  164 1   
   165  163  166 1   
   166  163  172 1   
   167  164  165 2   
   168  164  177 1   
   169  166  167 1   
   170  166  173 1   
   171  166  174 1   
   172  167  168 1   
   173  167  175 1   
   174  167  176 1   
   175  168  169 1   
   176  168  170 1   
   177  177  178 1   
   178  177  182 1   
   179  178  179 1   
   180  178  180 1   
   181  178  181 1   
   182  184  185 1   
   183  184  186 1   
   184  187  188 1   
   185  187  189 1   
   186  190  191 1   
   187  190  192 1   
@<TRIPOS>SUBSTRUCTURE
     1 MOL         1 TEMP              0 ****  ****    0 ROOT
