@<TRIPOS>MOLECULE
MOL
  195   189     1     0     0
SMALL
resp


@<TRIPOS>ATOM
      1 C1         -5.4270   -2.4790    6.0630 c3        1 MOL     -0.279550
      2 C2         -4.9210   -2.0430    4.5980 c         1 MOL      0.764499
      3 O1         -4.4780   -2.9130    3.8600 o         1 MOL     -0.617365
      4 H1         -6.1590   -1.7560    6.4240 hc        1 MOL      0.067284
      5 H2         -5.8880   -3.4650    6.0100 hc        1 MOL      0.067284
      6 H3         -4.5790   -2.5090    6.7470 hc        1 MOL      0.067284
      7 N1         -4.9920   -0.7640    4.2150 n         1 MOL     -0.609692
      8 C3         -4.8880   -0.2930    2.8030 c3        1 MOL      0.372385
      9 C4         -3.4670   -0.3120    2.1800 c         1 MOL     -0.131604
     10 O2         -3.3540    0.1800    1.0830 o         1 MOL     -0.297261
     11 C5         -5.3650    1.1240    2.7540 c3        1 MOL     -0.267608
     12 C6         -6.7470    1.3660    3.3820 c         1 MOL      0.741718
     13 O3         -6.8590    1.4900    4.6300 o         1 MOL     -0.709171
     14 O4         -7.7210    1.5260    2.6240 o         1 MOL     -0.709171
     15 H4         -5.5060   -0.1800    4.8680 hn        1 MOL      0.260487
     16 H5         -5.4110   -1.0210    2.1990 h1        1 MOL      0.063058
     17 H6         -5.3430    1.4820    1.7300 hc        1 MOL      0.042090
     18 H7         -4.5850    1.7470    3.1940 hc        1 MOL      0.042090
     19 N2         -2.4610   -0.8490    2.9210 n         1 MOL     -0.055013
     20 C7         -1.0580   -0.7030    2.5550 c3        1 MOL     -0.081923
     21 C8         -0.4140   -2.0240    2.2810 c         1 MOL      0.508347
     22 O5         -0.7390   -3.0060    2.9440 o         1 MOL     -0.509862
     23 C9         -0.4310    0.0870    3.7230 c3        1 MOL     -0.213182
     24 C10        -0.8170    1.5550    3.6060 c3        1 MOL      0.307474
     25 C11        -0.2530    2.5190    4.6490 c3        1 MOL     -0.198970
     26 C12         1.2740    2.5500    4.6640 c3        1 MOL     -0.033535
     27 N3          1.8570    2.9670    3.4100 n4        1 MOL     -0.420081
     28 H8         -2.6420   -1.2040    3.8520 hn        1 MOL      0.211966
     29 H9         -1.0770   -0.1960    1.5890 h1        1 MOL      0.234790
     30 H10         0.6390   -0.1160    3.8390 hc        1 MOL      0.067276
     31 H11        -0.8910   -0.2180    4.6560 hc        1 MOL      0.067276
     32 H12        -1.9050    1.6260    3.6290 hc        1 MOL     -0.022095
     33 H13        -0.4020    1.8950    2.6480 hc        1 MOL     -0.022095
     34 H14        -0.5510    2.3140    5.6790 hc        1 MOL      0.072166
     35 H15        -0.6680    3.4790    4.3400 hc        1 MOL      0.072166
     36 H16         1.6980    1.5980    4.9860 hx        1 MOL      0.101529
     37 H17         1.6140    3.2650    5.4270 hx        1 MOL      0.101529
     38 H18         2.8660    2.9250    3.4420 hn        1 MOL      0.338260
     39 H19         1.5800    2.3850    2.6320 hn        1 MOL      0.338260
     40 H20         1.5920    3.9200    3.1950 hn        1 MOL      0.338260
     41 N4          0.4590   -2.1750    1.2880 n         1 MOL     -0.230475
     42 C13         1.2000   -1.2340    0.4570 c3        1 MOL     -0.182451
     43 C14         1.9080   -0.2260    1.3490 c         1 MOL      0.483968
     44 O6          1.4330    0.9090    1.4990 o         1 MOL     -0.593576
     45 C15         0.4320   -0.5730   -0.6550 c3        1 MOL     -0.359197
     46 C16        -0.1480   -1.4860   -1.6900 c         1 MOL      0.593541
     47 O7         -0.0330   -2.7620   -1.5250 o         1 MOL     -0.658910
     48 O8         -0.7680   -1.0760   -2.6790 o         1 MOL     -0.658910
     49 H21         0.6490   -3.1590    1.1590 hn        1 MOL      0.157162
     50 H22         1.9120   -1.8120   -0.1250 h1        1 MOL     -0.042006
     51 H23         1.1050    0.0790   -1.2290 hc        1 MOL      0.161733
     52 H24        -0.3780    0.0600   -0.2930 hc        1 MOL      0.161733
     53 N5          3.0260   -0.5040    1.9800 n         1 MOL     -0.251468
     54 C17         3.8480   -1.7790    1.9100 c3        1 MOL     -0.236361
     55 C18         4.9880   -1.8050    2.9830 c         1 MOL      0.582187
     56 O9          4.8550   -1.1200    3.9930 o         1 MOL     -0.534072
     57 H25         3.3980    0.3250    2.4320 hn        1 MOL      0.253822
     58 H26         4.2810   -1.6890    0.9120 h1        1 MOL      0.169255
     59 H27         3.2420   -2.6820    1.9130 h1        1 MOL      0.169255
     60 N6          5.9930   -2.6540    2.8390 n         1 MOL     -0.415340
     61 C19         6.2740   -3.4250    1.5850 c3        1 MOL      0.115695
     62 C20         6.9310   -2.4120    0.5380 c         1 MOL      0.420171
     63 O10         7.4810   -1.4350    1.0470 o         1 MOL     -0.412433
     64 C21         7.1330   -4.6480    1.9330 c3        1 MOL     -0.224500
     65 C22         8.3720   -4.3200    2.7340 c         1 MOL      0.758011
     66 O11         8.3480   -4.3310    4.0090 o         1 MOL     -0.662055
     67 O12         9.4630   -4.1600    2.1750 o         1 MOL     -0.662055
     68 H28         6.6260   -2.7680    3.6200 hn        1 MOL      0.277782
     69 H29         5.3580   -3.7820    1.1200 h1        1 MOL     -0.053692
     70 H30         7.4050   -5.2870    1.0830 hc        1 MOL      0.041927
     71 H31         6.4860   -5.3300    2.4930 hc        1 MOL      0.041927
     72 N7          6.9140   -2.6500   -0.8020 n         1 MOL     -0.229735
     73 C23         7.6720   -2.0000   -1.8970 c3        1 MOL     -0.511196
     74 C24         7.1230   -0.6000   -2.4020 c         1 MOL      0.580246
     75 O13         7.6540   -0.0060   -3.3440 o         1 MOL     -0.563829
     76 H32         6.4330   -3.4570   -1.1900 hn        1 MOL      0.204719
     77 H33         7.5890   -2.7140   -2.7100 h1        1 MOL      0.232430
     78 H34         8.6940   -1.8000   -1.5660 h1        1 MOL      0.232430
     79 N8          6.0880   -0.1150   -1.7930 n         1 MOL     -0.127652
     80 C25         5.3930    1.1240   -2.0170 c3        1 MOL      0.056279
     81 C26         5.1140    1.8490   -0.6570 c         1 MOL      0.481464
     82 O14         5.1730    1.3430    0.4850 o         1 MOL     -0.440422
     83 C27         3.9170    0.7420   -2.5060 c3        1 MOL      0.072583
     84 C28         3.8670    0.1610   -3.9760 c3        1 MOL     -0.353635
     85 O15         3.1000    1.9190   -2.5730 oh        1 MOL     -0.527163
     86 H35         5.7260   -0.6230   -0.9900 hn        1 MOL     -0.026805
     87 H36         5.8900    1.8040   -2.7110 h1        1 MOL      0.085979
     88 H37         3.4050    0.0900   -1.8040 h1        1 MOL      0.182164
     89 H38         2.1840    1.6980   -2.7650 ho        1 MOL      0.388156
     90 H39         4.4910    0.7880   -4.6030 hc        1 MOL      0.104281
     91 H40         4.2460   -0.8630   -4.0310 hc        1 MOL      0.104281
     92 H41         2.8580    0.1340   -4.3770 hc        1 MOL      0.104281
     93 N9          4.8760    3.1700   -0.8940 n         1 MOL     -0.484399
     94 C29         4.3670    4.0370    0.2000 c3        1 MOL      0.035976
     95 C30         3.0120    4.6260    0.0110 c         1 MOL      0.320552
     96 O16         2.3380    5.1520    0.9200 o         1 MOL     -0.602956
     97 C31         5.5190    5.0580    0.5840 c3        1 MOL      0.149889
     98 C32         5.9410    6.0810   -0.4860 c3        1 MOL      0.067976
     99 C33         6.7990    4.3540    0.9800 c3        1 MOL     -0.351258
    100 C34         4.8570    7.0380   -0.9810 c3        1 MOL     -0.076949
    101 H42         4.9110    3.5400   -1.8330 hn        1 MOL      0.390487
    102 H43         4.2580    3.5090    1.1450 h1        1 MOL      0.047128
    103 H44         5.2350    5.6030    1.4850 hc        1 MOL      0.024507
    104 H45         6.1190    5.5000   -1.3890 hc        1 MOL     -0.023618
    105 H46         6.7600    6.6540   -0.0400 hc        1 MOL     -0.023618
    106 H47         7.4330    4.1210    0.1310 hc        1 MOL      0.095513
    107 H48         7.1810    4.9790    1.7870 hc        1 MOL      0.095513
    108 H49         6.5400    3.4370    1.5210 hc        1 MOL      0.095513
    109 H50         5.4220    7.5820   -1.7350 hc        1 MOL      0.019639
    110 H51         4.1690    6.3770   -1.5110 hc        1 MOL      0.019639
    111 H52         4.4300    7.6570   -0.1890 hc        1 MOL      0.019639
    112 N10         2.4330    4.5180   -1.2030 n         1 MOL      0.077872
    113 C35         1.0790    5.0270   -1.5760 c3        1 MOL     -0.195128
    114 C36        -0.0400    3.9890   -1.3880 c         1 MOL      0.350926
    115 O17        -0.2240    3.0650   -2.1750 o         1 MOL     -0.399424
    116 C37         1.0130    5.7170   -2.9290 c3        1 MOL      0.279771
    117 C38         1.7830    5.0170   -4.0480 c3        1 MOL     -0.141648
    118 O18         1.7220    6.9870   -2.7700 oh        1 MOL     -0.645264
    119 H53         2.8580    3.8140   -1.7990 hn        1 MOL      0.028611
    120 H54         0.7660    5.8160   -0.8940 h1        1 MOL      0.113712
    121 H55        -0.0170    5.7840   -3.2740 h1        1 MOL      0.072180
    122 H56         1.2350    7.5550   -2.1720 ho        1 MOL      0.384610
    123 H57         2.8340    4.8470   -3.8240 hc        1 MOL      0.053698
    124 H58         1.3410    4.0320   -4.2100 hc        1 MOL      0.053698
    125 H59         1.6410    5.5430   -4.9940 hc        1 MOL      0.053698
    126 N11        -0.8580    4.0770   -0.3050 n         1 MOL     -0.301482
    127 C39        -2.0660    3.2750   -0.0680 c3        1 MOL     -0.077692
    128 C40        -2.8790    2.9260   -1.2810 c         1 MOL      0.522256
    129 O19        -2.9620    3.7730   -2.1780 o         1 MOL     -0.528015
    130 C41        -2.9430    3.9650    0.9550 c3        1 MOL      0.118410
    131 C42        -3.7470    5.1250    0.4710 c3        1 MOL     -0.519412
    132 O20        -2.2320    4.2790    2.0940 oh        1 MOL     -0.599094
    133 H60        -0.7620    4.8080    0.3800 hn        1 MOL      0.243450
    134 H61        -1.6660    2.3380    0.3290 h1        1 MOL      0.069523
    135 H62        -3.6890    3.2350    1.2910 h1        1 MOL      0.254437
    136 H63        -1.5700    4.9310    1.8690 ho        1 MOL      0.408659
    137 H64        -4.6220    4.7070   -0.0290 hc        1 MOL      0.148983
    138 H65        -4.2820    5.5910    1.2960 hc        1 MOL      0.148983
    139 H66        -3.1150    5.8380   -0.0680 hc        1 MOL      0.148983
    140 N12        -3.5860    1.7810   -1.3170 n         1 MOL     -0.257730
    141 C43        -4.5510    1.3470   -2.2310 c3        1 MOL     -0.138505
    142 C44        -4.5890   -0.1810   -2.4460 c         1 MOL      0.528003
    143 O21        -5.1560   -0.6160   -3.5010 o         1 MOL     -0.589510
    144 C45        -5.8330    1.7940   -1.5460 c3        1 MOL     -0.155331
    145 C46        -7.1210    1.3220   -2.2490 c3        1 MOL      0.066991
    146 C47        -8.3620    2.0430   -1.7240 c3        1 MOL      0.066782
    147 C48        -9.5910    1.7450   -2.5980 c3        1 MOL      0.042018
    148 N13       -10.8000    2.4480   -2.0820 n4        1 MOL     -0.353520
    149 H67        -3.5290    1.2210   -0.4750 hn        1 MOL      0.018140
    150 H68        -4.3740    1.8510   -3.1910 h1        1 MOL      0.137608
    151 H69        -5.8870    2.8790   -1.4530 hc        1 MOL      0.075887
    152 H70        -5.8540    1.3440   -0.5580 hc        1 MOL      0.075887
    153 H71        -7.2760    0.2650   -1.9990 hc        1 MOL      0.002186
    154 H72        -7.1210    1.4350   -3.3310 hc        1 MOL      0.002186
    155 H73        -8.1300    3.0970   -1.6730 hc        1 MOL     -0.006964
    156 H74        -8.4440    1.6690   -0.6980 hc        1 MOL     -0.006964
    157 H75        -9.7700    0.6680   -2.6930 hx        1 MOL      0.071746
    158 H76        -9.2940    2.1780   -3.5450 hx        1 MOL      0.071746
    159 H77       -11.6020    2.2160   -2.6680 hn        1 MOL      0.325332
    160 H78       -10.9840    2.0520   -1.1700 hn        1 MOL      0.325332
    161 H79       -10.5660    3.3920   -1.8150 hn        1 MOL      0.325332
    162 N14        -4.1140   -0.9840   -1.4970 n         1 MOL      0.200176
    163 C49        -4.3590   -2.4250   -1.3760 c3        1 MOL     -0.685427
    164 C50        -5.7190   -2.7270   -0.7400 c         1 MOL      0.595972
    165 O22        -6.2510   -2.0050    0.1330 o         1 MOL     -0.513031
    166 C51        -3.2370   -2.8070   -0.3490 c3        1 MOL      0.281691
    167 C52        -3.2590   -4.3530   -0.0580 c3        1 MOL     -0.792472
    168 C53        -3.2270   -5.1570   -1.3410 c         1 MOL      0.791583
    169 O23        -4.2930   -5.5970   -1.8260 o         1 MOL     -0.756526
    170 O24        -2.1250   -5.2830   -1.9690 o         1 MOL     -0.756526
    171 H80        -3.6190   -0.5910   -0.7110 hn        1 MOL      0.142996
    172 H81        -4.2540   -2.9810   -2.3090 h1        1 MOL      0.172119
    173 H82        -3.2660   -2.3010    0.6120 hc        1 MOL      0.026601
    174 H83        -2.2670   -2.5450   -0.7620 hc        1 MOL      0.026601
    175 H84        -4.1980   -4.5040    0.4600 hc        1 MOL      0.240236
    176 H85        -2.4600   -4.6670    0.6160 hc        1 MOL      0.240236
    177 N15        -6.2860   -3.8620   -1.1450 n         1 MOL     -0.410479
    178 C54        -7.6230   -4.3130   -0.9740 c3        1 MOL      0.013628
    179 H86        -8.2910   -3.4530   -0.9200 h1        1 MOL      0.035783
    180 H87        -7.9070   -4.9410   -1.8190 h1        1 MOL      0.035783
    181 H88        -7.6980   -4.8880   -0.0520 h1        1 MOL      0.035783
    182 H89        -5.7490   -4.4240   -1.7950 hn        1 MOL      0.496245
    183 Ca1         0.4460   -5.1810   -2.2680 Ca        1 MOL      1.610498
    184 O25         2.7720   -6.3550   -2.7390 oh        1 MOL     -0.813039
    185 H90         3.3430   -6.1800   -3.4850 ho        1 MOL      0.415091
    186 H91         3.3410   -6.2930   -1.9740 ho        1 MOL      0.415091
    187 O26         1.8190   -3.7200   -3.9980 oh        1 MOL     -0.813039
    188 H92         2.0540   -2.8350   -3.7020 ho        1 MOL      0.415091
    189 H93         1.5440   -3.5940   -4.9090 ho        1 MOL      0.415091
    190 O27        -1.6900   -3.4590   -3.7480 oh        1 MOL     -0.813039
    191 H94        -1.9770   -4.0430   -3.0490 ho        1 MOL      0.415091
    192 H95        -1.4340   -2.6510   -3.3100 ho        1 MOL      0.415091
    193 O28        -0.0280   -6.4280   -4.6080 oh        1 MOL     -0.813039
    194 H96        -0.2860   -7.3100   -4.3230 ho        1 MOL      0.415091
    195 H97        -0.5390   -6.2880   -5.3990 ho        1 MOL      0.415091
@<TRIPOS>BOND
     1    1    2 1   
     2    1    4 1   
     3    1    5 1   
     4    1    6 1   
     5    2    3 2   
     6    2    7 1   
     7    7    8 1   
     8    7   15 1   
     9    8    9 1   
    10    8   11 1   
    11    8   16 1   
    12    9   10 2   
    13    9   19 1   
    14   11   12 1   
    15   11   17 1   
    16   11   18 1   
    17   12   13 1   
    18   12   14 1   
    19   19   20 1   
    20   19   28 1   
    21   20   21 1   
    22   20   23 1   
    23   20   29 1   
    24   21   22 2   
    25   21   41 1   
    26   23   24 1   
    27   23   30 1   
    28   23   31 1   
    29   24   25 1   
    30   24   32 1   
    31   24   33 1   
    32   25   26 1   
    33   25   34 1   
    34   25   35 1   
    35   26   27 1   
    36   26   36 1   
    37   26   37 1   
    38   27   38 1   
    39   27   39 1   
    40   27   40 1   
    41   41   42 1   
    42   41   49 1   
    43   42   43 1   
    44   42   45 1   
    45   42   50 1   
    46   43   44 2   
    47   43   53 1   
    48   45   46 1   
    49   45   51 1   
    50   45   52 1   
    51   46   47 1   
    52   46   48 1   
    53   53   54 1   
    54   53   57 1   
    55   54   55 1   
    56   54   58 1   
    57   54   59 1   
    58   55   56 2   
    59   55   60 1   
    60   60   61 1   
    61   60   68 1   
    62   61   62 1   
    63   61   64 1   
    64   61   69 1   
    65   62   63 2   
    66   62   72 1   
    67   64   65 1   
    68   64   70 1   
    69   64   71 1   
    70   65   66 1   
    71   65   67 1   
    72   72   73 1   
    73   72   76 1   
    74   73   74 1   
    75   73   77 1   
    76   73   78 1   
    77   74   75 2   
    78   74   79 1   
    79   79   80 1   
    80   79   86 1   
    81   80   81 1   
    82   80   83 1   
    83   80   87 1   
    84   81   82 2   
    85   81   93 1   
    86   83   84 1   
    87   83   85 1   
    88   83   88 1   
    89   84   90 1   
    90   84   91 1   
    91   84   92 1   
    92   85   89 1   
    93   93   94 1   
    94   93  101 1   
    95   94   95 1   
    96   94   97 1   
    97   94  102 1   
    98   95   96 2   
    99   95  112 1   
   100   97   98 1   
   101   97   99 1   
   102   97  103 1   
   103   98  100 1   
   104   98  104 1   
   105   98  105 1   
   106   99  106 1   
   107   99  107 1   
   108   99  108 1   
   109  100  109 1   
   110  100  110 1   
   111  100  111 1   
   112  112  113 1   
   113  112  119 1   
   114  113  114 1   
   115  113  116 1   
   116  113  120 1   
   117  114  115 2   
   118  114  126 1   
   119  116  117 1   
   120  116  118 1   
   121  116  121 1   
   122  117  123 1   
   123  117  124 1   
   124  117  125 1   
   125  118  122 1   
   126  126  127 1   
   127  126  133 1   
   128  127  128 1   
   129  127  130 1   
   130  127  134 1   
   131  128  129 2   
   132  128  140 1   
   133  130  131 1   
   134  130  132 1   
   135  130  135 1   
   136  131  137 1   
   137  131  138 1   
   138  131  139 1   
   139  132  136 1   
   140  140  141 1   
   141  140  149 1   
   142  141  142 1   
   143  141  144 1   
   144  141  150 1   
   145  142  143 2   
   146  142  162 1   
   147  144  145 1   
   148  144  151 1   
   149  144  152 1   
   150  145  146 1   
   151  145  153 1   
   152  145  154 1   
   153  146  147 1   
   154  146  155 1   
   155  146  156 1   
   156  147  148 1   
   157  147  157 1   
   158  147  158 1   
   159  148  159 1   
   160  148  160 1   
   161  148  161 1   
   162  162  163 1   
   163  162  171 1   
   164  163  164 1   
   165  163  166 1   
   166  163  172 1   
   167  164  165 2   
   168  164  177 1   
   169  166  167 1   
   170  166  173 1   
   171  166  174 1   
   172  167  168 1   
   173  167  175 1   
   174  167  176 1   
   175  168  169 1   
   176  168  170 1   
   177  177  178 1   
   178  177  182 1   
   179  178  179 1   
   180  178  180 1   
   181  178  181 1   
   182  184  185 1   
   183  184  186 1   
   184  187  188 1   
   185  187  189 1   
   186  190  191 1   
   187  190  192 1   
   188  193  194 1   
   189  193  195 1   
@<TRIPOS>SUBSTRUCTURE
     1 MOL         1 TEMP              0 ****  ****    0 ROOT
