@<TRIPOS>MOLECULE
MOL
  181   177     1     0     0
SMALL
resp


@<TRIPOS>ATOM
      1 C1          6.1920   -5.7150    5.2090 c3        1 MOL     -0.305114
      2 C2          5.8230   -4.4120    4.5410 c         1 MOL      0.680737
      3 O1          4.8870   -3.7440    5.0000 o         1 MOL     -0.557648
      4 H1          6.8300   -5.5130    6.0700 hc        1 MOL      0.070142
      5 H2          5.2860   -6.2240    5.5390 hc        1 MOL      0.070142
      6 H3          6.7280   -6.3480    4.5010 hc        1 MOL      0.070142
      7 N1          6.4160   -3.9160    3.4310 n         1 MOL     -0.475441
      8 C3          7.5310   -4.4230    2.6450 c3        1 MOL      0.176599
      9 C4          6.9030   -5.0910    1.3600 c         1 MOL      0.388041
     10 O2          5.7350   -5.4780    1.2720 o         1 MOL     -0.383637
     11 C5          8.3690   -3.2330    2.2550 c3        1 MOL     -0.446348
     12 C6          7.6600   -2.1010    1.5560 c         1 MOL      0.672205
     13 O3          7.5350   -2.0710    0.3150 o         1 MOL     -0.711244
     14 O4          7.2180   -1.0650    2.1530 o         1 MOL     -0.711244
     15 H4          5.8520   -3.3410    2.8220 hn        1 MOL      0.312922
     16 H5          8.0390   -5.1880    3.2390 h1        1 MOL      0.067171
     17 H6          9.1710   -3.5310    1.5830 hc        1 MOL      0.104600
     18 H7          8.6800   -2.8000    3.2060 hc        1 MOL      0.104600
     19 N2          7.6870   -5.3040    0.2340 n         1 MOL     -0.656211
     20 C7          7.2210   -5.8740   -1.0460 c3        1 MOL      0.500431
     21 C8          5.9660   -5.0700   -1.6570 c         1 MOL      0.291775
     22 O5          5.1920   -5.6710   -2.3610 o         1 MOL     -0.500785
     23 C9          7.1070   -7.3830   -1.0700 c3        1 MOL     -0.396145
     24 H8          8.6330   -4.9580    0.1750 hn        1 MOL      0.316276
     25 H9          7.9910   -5.6000   -1.7680 h1        1 MOL     -0.046728
     26 H10         6.2450   -7.6360   -0.4580 hc        1 MOL      0.097418
     27 H11         6.7930   -7.6750   -2.0660 hc        1 MOL      0.097418
     28 H12         8.0730   -7.8280   -0.8310 hc        1 MOL      0.097418
     29 N3          5.7000   -3.7860   -1.3660 n         1 MOL     -0.209114
     30 C10         4.5520   -2.9080   -1.7990 c3        1 MOL     -0.031716
     31 C11         4.9750   -1.5240   -2.2900 c         1 MOL      0.465186
     32 O6          6.0460   -1.0480   -1.8920 o         1 MOL     -0.535282
     33 C12         3.5130   -2.8290   -0.6680 c3        1 MOL     -0.065049
     34 C13         4.0060   -2.2320    0.6540 c         1 MOL      0.678086
     35 O7          4.3230   -1.0420    0.6570 o         1 MOL     -0.667190
     36 O8          4.1550   -2.9690    1.6020 o         1 MOL     -0.667190
     37 H13         6.3260   -3.3890   -0.6770 hn        1 MOL      0.148043
     38 H14         3.9590   -3.4430   -2.5350 h1        1 MOL      0.073690
     39 H15         3.0640   -3.8200   -0.6570 hc        1 MOL      0.061926
     40 H16         2.6720   -2.1790   -0.9500 hc        1 MOL      0.061926
     41 N4          4.1610   -0.8120   -3.1120 n         1 MOL     -0.417563
     42 C14         4.5630    0.3950   -3.7670 c3        1 MOL     -0.026093
     43 C15         4.4900    1.5640   -2.8220 c         1 MOL      0.534553
     44 O9          4.5780    1.4860   -1.6010 o         1 MOL     -0.594300
     45 H17         3.1920   -1.0700   -3.2510 hn        1 MOL      0.313962
     46 H18         3.8980    0.5180   -4.6220 h1        1 MOL      0.077718
     47 H19         5.5500    0.3630   -4.2250 h1        1 MOL      0.077718
     48 N5          4.3640    2.7870   -3.3670 n         1 MOL     -0.411889
     49 C16         4.4220    4.1040   -2.6870 c3        1 MOL      0.058680
     50 C17         3.2800    4.2350   -1.6580 c         1 MOL      0.735041
     51 O10         2.1270    3.8380   -2.0700 o         1 MOL     -0.524466
     52 C18         4.4580    5.2920   -3.6670 c3        1 MOL     -0.527004
     53 C19         5.7800    5.3690   -4.4610 c         1 MOL      0.816586
     54 N6          6.0590    4.5330   -5.5110 n         1 MOL     -0.944381
     55 O11         6.6940    6.1910   -4.2550 o         1 MOL     -0.582803
     56 H20         4.2090    2.7840   -4.3670 hn        1 MOL      0.203761
     57 H21         5.3260    4.0790   -2.0760 h1        1 MOL      0.002177
     58 H22         4.4390    6.1400   -2.9740 hc        1 MOL      0.184352
     59 H23         3.5980    5.1920   -4.3190 hc        1 MOL      0.184352
     60 H24         5.4370    3.7370   -5.6400 hn        1 MOL      0.407278
     61 H25         6.8630    4.7540   -6.0730 hn        1 MOL      0.407278
     62 N7          3.7090    4.6810   -0.4990 n         1 MOL     -0.487389
     63 C20         2.7270    4.9450    0.5880 c3        1 MOL      0.111356
     64 C21         2.0130    6.3420    0.4910 c         1 MOL      0.369423
     65 O12         2.4100    7.1750   -0.3890 o         1 MOL     -0.540766
     66 H26         4.7000    4.7870   -0.3440 hn        1 MOL      0.262137
     67 H27         3.1190    4.8160    1.5940 h1        1 MOL      0.051699
     68 H28         1.9750    4.1580    0.6270 h1        1 MOL      0.051699
     69 N8          0.8840    6.6270    1.1060 n         1 MOL     -0.336165
     70 C22         0.1240    5.7510    2.0180 c3        1 MOL     -0.363179
     71 C23        -0.6890    4.7300    1.3120 c         1 MOL      0.767646
     72 O13        -1.3800    5.0230    0.4010 o         1 MOL     -0.569701
     73 C24        -0.7810    6.5930    2.9590 c3        1 MOL      0.480796
     74 C25        -1.5220    5.7510    3.9830 c3        1 MOL     -0.335815
     75 O14         0.0130    7.5540    3.6510 oh        1 MOL     -0.642411
     76 H29         0.4350    7.5000    0.8570 hn        1 MOL      0.320846
     77 H30         0.8040    5.1340    2.6080 h1        1 MOL      0.093726
     78 H31        -1.5240    7.1040    2.3470 h1        1 MOL      0.049695
     79 H32         0.7890    7.0520    3.9230 ho        1 MOL      0.371793
     80 H33        -2.1220    6.3940    4.6320 hc        1 MOL      0.091525
     81 H34        -2.1730    5.0770    3.4320 hc        1 MOL      0.091525
     82 H35        -0.8190    5.1290    4.5560 hc        1 MOL      0.091525
     83 N9         -0.7330    3.5150    1.8160 n         1 MOL     -0.475712
     84 C26        -1.5640    2.3610    1.3980 c3        1 MOL     -0.037202
     85 C27        -2.3590    1.8220    2.6160 c         1 MOL      0.629320
     86 O15        -1.7890    1.5100    3.6530 o         1 MOL     -0.610719
     87 C28        -0.7200    1.1830    0.8010 c3        1 MOL      0.043203
     88 C29         0.3380    1.6250   -0.3460 c3        1 MOL     -0.241624
     89 C30        -1.6280    0.2020    0.2060 c3        1 MOL     -0.140995
     90 C31         1.5080    0.6000   -0.6370 c3        1 MOL      0.036325
     91 H36        -0.2740    3.3100    2.6970 hn        1 MOL      0.233014
     92 H37        -2.2830    2.6680    0.6380 h1        1 MOL      0.100919
     93 H38        -0.2090    0.6770    1.6150 hc        1 MOL      0.041243
     94 H39         0.7620    2.5870   -0.0880 hc        1 MOL      0.088832
     95 H40        -0.1420    1.7000   -1.3200 hc        1 MOL      0.088832
     96 H41        -2.1460   -0.2850    1.0390 hc        1 MOL      0.053562
     97 H42        -2.2960    0.7110   -0.4760 hc        1 MOL      0.053562
     98 H43        -1.1050   -0.6100   -0.2940 hc        1 MOL      0.053562
     99 H44         2.0620    0.8910   -1.5250 hc        1 MOL      0.000969
    100 H45         2.1900    0.5450    0.2220 hc        1 MOL      0.000969
    101 H46         1.0650   -0.3750   -0.8550 hc        1 MOL      0.000969
    102 N10        -3.6540    1.6170    2.5830 n         1 MOL     -0.430208
    103 C32        -4.5640    1.8640    1.4680 c3        1 MOL      0.011685
    104 C33        -5.6380    0.8050    1.2330 c         1 MOL      0.450061
    105 O16        -5.9110   -0.0190    2.0500 o         1 MOL     -0.485016
    106 C34        -5.2320    3.2670    1.6250 c3        1 MOL      0.061517
    107 C35        -5.6950    3.6080    3.0220 c         1 MOL      0.678001
    108 O17        -6.2530    2.7090    3.6800 o         1 MOL     -0.711484
    109 O18        -5.4400    4.7150    3.4150 o         1 MOL     -0.711484
    110 H47        -4.0770    1.2600    3.4220 hn        1 MOL      0.326019
    111 H48        -4.0260    1.8560    0.5190 h1        1 MOL      0.078104
    112 H49        -5.9730    3.3980    0.8450 hc        1 MOL     -0.070233
    113 H50        -4.4190    3.9520    1.4080 hc        1 MOL     -0.070233
    114 N11        -6.1930    0.8460   -0.0020 n         1 MOL     -0.522486
    115 C36        -7.4310    0.2070   -0.4240 c3        1 MOL      0.382962
    116 C37        -7.3800   -0.3050   -1.9100 c         1 MOL      0.171628
    117 O19        -6.6480    0.3310   -2.6840 o         1 MOL     -0.461604
    118 C38        -8.5260    1.2830   -0.2010 c3        1 MOL     -0.103272
    119 C39        -9.9420    0.7560   -0.1910 ca        1 MOL      0.237467
    120 C40       -10.6510    0.6420   -1.3580 ca        1 MOL     -0.353074
    121 C41       -10.5250    0.4490    1.0310 ca        1 MOL     -0.353074
    122 C42       -11.9650    0.1670   -1.2760 ca        1 MOL      0.014472
    123 C43       -11.8100   -0.0990    1.1160 ca        1 MOL      0.014472
    124 C44       -12.5780   -0.2650   -0.0420 ca        1 MOL     -0.233350
    125 H51        -5.7410    1.4020   -0.7160 hn        1 MOL      0.282937
    126 H52        -7.6130   -0.5210    0.3740 h1        1 MOL      0.025219
    127 H53        -8.5810    2.0880   -0.9210 hc        1 MOL      0.047602
    128 H54        -8.4230    1.6920    0.8000 hc        1 MOL      0.047602
    129 H55       -10.2080    0.8330   -2.3260 ha        1 MOL      0.192135
    130 H56       -10.0070    0.4740    1.9750 ha        1 MOL      0.192135
    131 H57       -12.5540    0.2080   -2.1820 ha        1 MOL      0.076216
    132 H58       -12.2050   -0.4830    2.0460 ha        1 MOL      0.076216
    133 H59       -13.5960   -0.6430   -0.0190 ha        1 MOL      0.112691
    134 N12        -8.1990   -1.2930   -2.3490 n         1 MOL      0.010600
    135 C45        -8.9440   -2.2610   -1.5620 c3        1 MOL      0.043373
    136 C46        -8.1080   -3.0100   -0.5390 c         1 MOL      0.409788
    137 O20        -8.3240   -3.0060    0.6630 o         1 MOL     -0.499640
    138 C47        -9.7120   -3.1510   -2.5110 c3        1 MOL     -0.022686
    139 C48        -9.8580   -2.3880   -3.7360 c3        1 MOL     -0.009765
    140 C49        -8.6200   -1.5220   -3.8050 c3        1 MOL     -0.307489
    141 H60        -9.7360   -1.7420   -1.0120 h1        1 MOL      0.046126
    142 H61        -9.1450   -4.0510   -2.7720 hc        1 MOL      0.023939
    143 H62       -10.6810   -3.3850   -2.0770 hc        1 MOL      0.023939
    144 H63        -9.8660   -2.9770   -4.6590 hc        1 MOL      0.016722
    145 H64       -10.7750   -1.8530   -3.4970 hc        1 MOL      0.016722
    146 H65        -7.7790   -2.0670   -4.2230 h1        1 MOL      0.140959
    147 H66        -8.9380   -0.6320   -4.3530 h1        1 MOL      0.140959
    148 N13        -6.9330   -3.4570   -1.0680 n         1 MOL     -0.439918
    149 C50        -5.9080   -3.9830   -0.1850 c3        1 MOL      0.280051
    150 C51        -6.2190   -5.4240    0.3030 c         1 MOL      0.398874
    151 O21        -6.3090   -6.3170   -0.5370 o         1 MOL     -0.582232
    152 C52        -4.5770   -4.0200   -0.9500 c3        1 MOL     -0.084926
    153 C53        -4.1580   -2.6020   -1.3690 c3        1 MOL     -0.029379
    154 C54        -2.9720   -2.6570   -2.3780 c         1 MOL      0.689340
    155 O22        -2.2310   -3.6580   -2.4820 o         1 MOL     -0.687570
    156 O23        -2.8260   -1.7020   -3.1600 o         1 MOL     -0.687570
    157 H67        -6.7230   -3.6010   -2.0520 hn        1 MOL      0.328591
    158 H68        -5.7380   -3.2910    0.6390 h1        1 MOL      0.047555
    159 H69        -4.7100   -4.6080   -1.8560 hc        1 MOL      0.014306
    160 H70        -3.7810   -4.3550   -0.2890 hc        1 MOL      0.014306
    161 H71        -3.8340   -2.0070   -0.5150 hc        1 MOL     -0.031897
    162 H72        -4.9950   -2.0550   -1.8010 hc        1 MOL     -0.031897
    163 N14        -6.4180   -5.7110    1.5780 n         1 MOL     -0.324824
    164 C55        -6.6860   -4.8370    2.6990 c3        1 MOL     -0.133461
    165 H73        -5.7470   -4.5690    3.1850 h1        1 MOL      0.076215
    166 H74        -7.1820   -3.9320    2.3450 h1        1 MOL      0.076215
    167 H75        -7.3310   -5.3490    3.4140 h1        1 MOL      0.076215
    168 H76        -6.2500   -6.6820    1.8280 hn        1 MOL      0.258119
    169 Ca1         6.4300    0.4240    0.1530 Ca        1 MOL      1.813140
    170 O24         5.3990    1.7230    2.2940 oh        1 MOL     -0.840076
    171 H77         4.6270    2.2690    2.4580 ho        1 MOL      0.406140
    172 H78         5.9440    1.8370    3.0740 ho        1 MOL      0.406140
    173 O25         8.4910    0.9770   -1.7860 oh        1 MOL     -0.840076
    174 H79         8.5970    1.7760   -2.2920 ho        1 MOL      0.406140
    175 H80         9.2350    0.4270   -2.0370 ho        1 MOL      0.406140
    176 O26         8.5800    1.3350    1.3290 oh        1 MOL     -0.840076
    177 H81         9.2030    0.7030    0.9700 ho        1 MOL      0.406140
    178 H82         8.7110    1.2960    2.2750 ho        1 MOL      0.406140
    179 O27         6.8180    3.1690   -0.2680 oh        1 MOL     -0.840076
    180 H83         6.6250    3.8810    0.3310 ho        1 MOL      0.406140
    181 H84         7.4220    3.5540   -0.9090 ho        1 MOL      0.406140
@<TRIPOS>BOND
     1    1    2 1   
     2    1    4 1   
     3    1    5 1   
     4    1    6 1   
     5    2    3 2   
     6    2    7 1   
     7    7    8 1   
     8    7   15 1   
     9    8    9 1   
    10    8   11 1   
    11    8   16 1   
    12    9   10 2   
    13    9   19 1   
    14   11   12 1   
    15   11   17 1   
    16   11   18 1   
    17   12   13 1   
    18   12   14 1   
    19   19   20 1   
    20   19   24 1   
    21   20   21 1   
    22   20   23 1   
    23   20   25 1   
    24   21   22 2   
    25   21   29 1   
    26   23   26 1   
    27   23   27 1   
    28   23   28 1   
    29   29   30 1   
    30   29   37 1   
    31   30   31 1   
    32   30   33 1   
    33   30   38 1   
    34   31   32 2   
    35   31   41 1   
    36   33   34 1   
    37   33   39 1   
    38   33   40 1   
    39   34   35 1   
    40   34   36 1   
    41   41   42 1   
    42   41   45 1   
    43   42   43 1   
    44   42   46 1   
    45   42   47 1   
    46   43   44 2   
    47   43   48 1   
    48   48   49 1   
    49   48   56 1   
    50   49   50 1   
    51   49   52 1   
    52   49   57 1   
    53   50   51 2   
    54   50   62 1   
    55   52   53 1   
    56   52   58 1   
    57   52   59 1   
    58   53   54 1   
    59   53   55 2   
    60   54   60 1   
    61   54   61 1   
    62   62   63 1   
    63   62   66 1   
    64   63   64 1   
    65   63   67 1   
    66   63   68 1   
    67   64   65 2   
    68   64   69 1   
    69   69   70 1   
    70   69   76 1   
    71   70   71 1   
    72   70   73 1   
    73   70   77 1   
    74   71   72 2   
    75   71   83 1   
    76   73   74 1   
    77   73   75 1   
    78   73   78 1   
    79   74   80 1   
    80   74   81 1   
    81   74   82 1   
    82   75   79 1   
    83   83   84 1   
    84   83   91 1   
    85   84   85 1   
    86   84   87 1   
    87   84   92 1   
    88   85   86 2   
    89   85  102 1   
    90   87   88 1   
    91   87   89 1   
    92   87   93 1   
    93   88   90 1   
    94   88   94 1   
    95   88   95 1   
    96   89   96 1   
    97   89   97 1   
    98   89   98 1   
    99   90   99 1   
   100   90  100 1   
   101   90  101 1   
   102  102  103 1   
   103  102  110 1   
   104  103  104 1   
   105  103  106 1   
   106  103  111 1   
   107  104  105 2   
   108  104  114 1   
   109  106  107 1   
   110  106  112 1   
   111  106  113 1   
   112  107  108 1   
   113  107  109 1   
   114  114  115 1   
   115  114  125 1   
   116  115  116 1   
   117  115  118 1   
   118  115  126 1   
   119  116  117 2   
   120  116  134 1   
   121  118  119 1   
   122  118  127 1   
   123  118  128 1   
   124  119  120 ar  
   125  119  121 ar  
   126  120  122 ar  
   127  120  129 1   
   128  121  123 ar  
   129  121  130 1   
   130  122  124 ar  
   131  122  131 1   
   132  123  124 ar  
   133  123  132 1   
   134  124  133 1   
   135  134  135 1   
   136  134  140 1   
   137  135  136 1   
   138  135  138 1   
   139  135  141 1   
   140  136  137 2   
   141  136  148 1   
   142  138  139 1   
   143  138  142 1   
   144  138  143 1   
   145  139  140 1   
   146  139  144 1   
   147  139  145 1   
   148  140  146 1   
   149  140  147 1   
   150  148  149 1   
   151  148  157 1   
   152  149  150 1   
   153  149  152 1   
   154  149  158 1   
   155  150  151 2   
   156  150  163 1   
   157  152  153 1   
   158  152  159 1   
   159  152  160 1   
   160  153  154 1   
   161  153  161 1   
   162  153  162 1   
   163  154  155 1   
   164  154  156 1   
   165  163  164 1   
   166  163  168 1   
   167  164  165 1   
   168  164  166 1   
   169  164  167 1   
   170  170  171 1   
   171  170  172 1   
   172  173  174 1   
   173  173  175 1   
   174  176  177 1   
   175  176  178 1   
   176  179  180 1   
   177  179  181 1   
@<TRIPOS>SUBSTRUCTURE
     1 MOL         1 TEMP              0 ****  ****    0 ROOT
