@<TRIPOS>MOLECULE
MOL
  179   176     1     0     0
SMALL
resp


@<TRIPOS>ATOM
      1 C1          2.8730    1.0430    6.6180 c3        1 MOL     -0.468142
      2 C2          2.7790    1.0980    5.0480 c         1 MOL      0.741384
      3 O1          3.6050    0.6270    4.2670 o         1 MOL     -0.563335
      4 H1          1.9040    1.2950    7.0490 hc        1 MOL      0.130215
      5 H2          3.1580    0.0380    6.9310 hc        1 MOL      0.130215
      6 H3          3.6200    1.7580    6.9640 hc        1 MOL      0.130215
      7 N1          1.6060    1.6110    4.5530 n         1 MOL     -0.654008
      8 C3          1.2650    1.7820    3.1040 c3        1 MOL     -0.099072
      9 C4          1.9170    3.0060    2.5260 c         1 MOL      0.831034
     10 O2          1.9780    4.0570    3.1370 o         1 MOL     -0.581594
     11 C5         -0.2550    1.9940    3.0870 c3        1 MOL      0.027479
     12 C6         -0.8800    1.8830    1.6450 c         1 MOL      0.674944
     13 O3         -2.0930    1.6650    1.4750 o         1 MOL     -0.741189
     14 O4         -0.1430    1.8360    0.6390 o         1 MOL     -0.741189
     15 H4          0.9530    1.9570    5.2520 hn        1 MOL      0.345258
     16 H5          1.5560    0.8960    2.5410 h1        1 MOL      0.089552
     17 H6         -0.4980    2.9960    3.4160 hc        1 MOL     -0.000917
     18 H7         -0.7100    1.2460    3.7340 hc        1 MOL     -0.000917
     19 N2          2.2520    2.9450    1.2260 n         1 MOL     -0.781659
     20 C7          2.9930    4.0620    0.5490 c3        1 MOL      0.105881
     21 C8          2.0690    4.9190   -0.2970 c         1 MOL      0.546941
     22 O5          2.4360    6.1320   -0.5330 o         1 MOL     -0.577039
     23 C9          4.2670    3.5020   -0.1180 c3        1 MOL     -0.007781
     24 C10         5.2470    4.6670   -0.6510 c3        1 MOL     -0.089156
     25 C11         6.7000    4.3180   -1.0530 c3        1 MOL     -0.171255
     26 C12         6.8440    3.9400   -2.5890 c3        1 MOL      0.069714
     27 N3          8.2720    3.5890   -2.9770 n4        1 MOL     -0.529565
     28 H8          2.0200    2.1530    0.6520 hn        1 MOL      0.426704
     29 H9          3.3330    4.8080    1.2560 h1        1 MOL      0.093939
     30 H10         4.0070    2.7600   -0.8720 hc        1 MOL      0.040673
     31 H11         4.8930    2.9700    0.6010 hc        1 MOL      0.040673
     32 H12         5.4060    5.3690    0.1760 hc        1 MOL      0.058974
     33 H13         4.8010    5.1550   -1.5100 hc        1 MOL      0.058974
     34 H14         7.0090    3.4970   -0.4050 hc        1 MOL      0.090546
     35 H15         7.3810    5.1370   -0.8410 hc        1 MOL      0.090546
     36 H16         6.5640    4.8010   -3.1860 hx        1 MOL      0.084703
     37 H17         6.1460    3.1570   -2.9010 hx        1 MOL      0.084703
     38 H18         8.9050    4.2940   -2.6240 hn        1 MOL      0.374086
     39 H19         8.4730    2.6580   -2.6360 hn        1 MOL      0.374086
     40 H20         8.3520    3.6470   -3.9870 hn        1 MOL      0.374086
     41 N4          0.8690    4.3370   -0.6010 n         1 MOL     -0.437826
     42 C13        -0.1290    5.0970   -1.4410 c3        1 MOL      0.047254
     43 C14        -1.2780    5.5030   -0.6020 c         1 MOL      0.543955
     44 O6         -1.8000    6.5570   -0.8540 o         1 MOL     -0.557412
     45 C15        -0.6030    4.3020   -2.6280 c3        1 MOL     -0.273192
     46 C16        -0.9880    2.8400   -2.2390 c         1 MOL      0.832615
     47 O7         -2.0350    2.5410   -1.6990 o         1 MOL     -0.774104
     48 O8         -0.2170    1.9310   -2.5810 o         1 MOL     -0.774104
     49 H21         0.6590    3.4220   -0.2300 hn        1 MOL      0.271680
     50 H22         0.2670    6.0740   -1.7060 h1        1 MOL      0.092979
     51 H23         0.2110    4.2100   -3.3470 hc        1 MOL      0.071303
     52 H24        -1.4470    4.7700   -3.1500 hc        1 MOL      0.071303
     53 N5         -1.6310    4.7090    0.4250 n         1 MOL     -0.174027
     54 C17        -2.7580    5.0900    1.2870 c3        1 MOL     -0.330637
     55 C18        -4.1190    4.5890    0.6480 c         1 MOL      0.523782
     56 O9         -5.1960    5.1080    0.9920 o         1 MOL     -0.531604
     57 H25        -1.2630    3.7680    0.4550 hn        1 MOL      0.123709
     58 H26        -2.7350    6.1800    1.3920 h1        1 MOL      0.162028
     59 H27        -2.5260    4.6520    2.2550 h1        1 MOL      0.162028
     60 N6         -4.1060    3.5990   -0.2360 n         1 MOL     -0.084017
     61 C19        -5.2410    3.1080   -0.9780 c3        1 MOL     -0.116539
     62 C20        -5.2810    1.6150   -1.2520 c         1 MOL      0.666817
     63 O10        -4.2680    0.9290   -1.0070 o         1 MOL     -0.590663
     64 C21        -5.2820    3.8350   -2.3120 c3        1 MOL     -0.393302
     65 C22        -5.7240    5.2290   -2.0290 c         1 MOL      0.764307
     66 N7         -4.9820    6.2650   -2.4920 n         1 MOL     -0.903652
     67 O11        -6.7830    5.4420   -1.4580 o         1 MOL     -0.539492
     68 H28        -3.1940    3.3030   -0.5710 hn        1 MOL      0.147567
     69 H29        -6.0690    3.3940   -0.3340 h1        1 MOL      0.082138
     70 H30        -5.9060    3.3820   -3.0810 hc        1 MOL      0.098764
     71 H31        -4.3230    3.8900   -2.8430 hc        1 MOL      0.098764
     72 H32        -4.1420    6.1110   -3.0380 hn        1 MOL      0.398657
     73 H33        -5.1420    7.2080   -2.1720 hn        1 MOL      0.398657
     74 N8         -6.4220    1.0780   -1.7240 n         1 MOL     -0.348980
     75 C23        -6.6840   -0.2960   -1.8900 c3        1 MOL     -0.096713
     76 C24        -6.2260   -1.1720   -0.7890 c         1 MOL      0.523324
     77 O12        -6.6460   -0.9570    0.3700 o         1 MOL     -0.512646
     78 H34        -7.1770    1.7460   -1.7720 hn        1 MOL      0.292630
     79 H35        -6.3150   -0.6230   -2.8650 h1        1 MOL      0.067652
     80 H36        -7.7690   -0.4060   -1.9300 h1        1 MOL      0.067652
     81 N9         -5.3610   -2.0960   -1.0630 n         1 MOL     -0.400416
     82 C25        -4.6770   -3.0630   -0.1330 c3        1 MOL      0.023999
     83 C26        -3.5730   -2.4060    0.6320 c         1 MOL      0.143807
     84 O13        -3.2030   -1.3120    0.2990 o         1 MOL     -0.184676
     85 C27        -4.3180   -4.3700   -0.8890 c3        1 MOL     -0.096497
     86 C28        -5.5520   -5.1010   -1.3680 ca        1 MOL      0.128435
     87 C29        -5.7190   -5.4120   -2.7640 ca        1 MOL     -0.230080
     88 C30        -6.4620   -5.6740   -0.4480 ca        1 MOL     -0.230080
     89 C31        -6.7960   -6.1800   -3.2420 ca        1 MOL     -0.174588
     90 C32        -7.4410   -6.5920   -0.9120 ca        1 MOL     -0.174588
     91 C33        -7.7140   -6.7010   -2.2950 ca        1 MOL      0.259070
     92 O14        -8.6810   -7.5580   -2.7520 oh        1 MOL     -0.459900
     93 H37        -5.1360   -2.2670   -2.0330 hn        1 MOL      0.243734
     94 H38        -5.3820   -3.2510    0.6670 h1        1 MOL      0.118480
     95 H39        -3.7270   -4.9660   -0.2060 hc        1 MOL      0.032231
     96 H40        -3.7230   -4.0180   -1.7410 hc        1 MOL      0.032231
     97 H41        -4.9310   -5.1390   -3.4490 ha        1 MOL      0.147523
     98 H42        -6.2900   -5.5060    0.6040 ha        1 MOL      0.147523
     99 H43        -7.0260   -6.3150   -4.2900 ha        1 MOL      0.145648
    100 H44        -8.1100   -7.0810   -0.2160 ha        1 MOL      0.145648
    101 H45        -9.2730   -7.8800   -2.0570 ho        1 MOL      0.366747
    102 N10        -3.1160   -3.0320    1.7420 n         1 MOL     -0.486795
    103 C34        -2.2310   -2.5000    2.8250 c3        1 MOL      0.180494
    104 C35        -0.8140   -1.9860    2.3970 c         1 MOL      0.322001
    105 O15        -0.7270   -1.1010    1.5390 o         1 MOL     -0.482181
    106 C36        -2.9130   -1.3160    3.6120 c3        1 MOL      0.146383
    107 C37        -2.3670   -0.8980    4.9720 c3        1 MOL     -0.365749
    108 C38        -4.4060   -1.5800    3.7830 c3        1 MOL     -0.163162
    109 C39        -2.3670   -2.0710    5.9600 c3        1 MOL     -0.094264
    110 H46        -3.3790   -3.9980    1.7720 hn        1 MOL      0.324903
    111 H47        -1.8980   -3.2880    3.4940 h1        1 MOL      0.017549
    112 H48        -2.9700   -0.4440    2.9670 hc        1 MOL      0.065607
    113 H49        -2.9850   -0.1730    5.4880 hc        1 MOL      0.147708
    114 H50        -1.3450   -0.5260    4.8760 hc        1 MOL      0.147708
    115 H51        -4.4740   -2.5360    4.3110 hc        1 MOL      0.056558
    116 H52        -4.9130   -0.8150    4.3670 hc        1 MOL      0.056558
    117 H53        -4.9090   -1.6150    2.8200 hc        1 MOL      0.056558
    118 H54        -3.3050   -2.5940    6.1060 hc        1 MOL      0.029385
    119 H55        -1.5950   -2.7920    5.6920 hc        1 MOL      0.029385
    120 H56        -2.0720   -1.6210    6.9130 hc        1 MOL      0.029385
    121 N11         0.1980   -2.3190    3.2070 n         1 MOL     -0.499846
    122 C40         1.5550   -1.8110    3.2430 c3        1 MOL      0.070426
    123 C41         2.3640   -1.7210    1.9610 c         1 MOL      0.351574
    124 O16         3.5730   -1.3920    1.9660 o         1 MOL     -0.497870
    125 C42         2.3700   -2.6000    4.3090 c3        1 MOL     -0.012884
    126 O17         1.4740   -2.9450    5.4440 oh        1 MOL     -0.613550
    127 H57        -0.0660   -2.9510    3.9520 hn        1 MOL      0.302831
    128 H58         1.4470   -0.8720    3.7990 h1        1 MOL      0.242199
    129 H59         3.2130   -2.0350    4.7100 h1        1 MOL      0.134658
    130 H60         2.6450   -3.5760    3.9250 h1        1 MOL      0.134658
    131 H61         0.9880   -3.7540    5.2560 ho        1 MOL      0.389079
    132 N12         1.7810   -2.1800    0.8110 n         1 MOL     -0.295859
    133 C43         2.4820   -2.2380   -0.4650 c3        1 MOL      0.060809
    134 C44         2.0500   -0.9850   -1.3260 c         1 MOL      0.630196
    135 O18         0.9770   -0.4530   -1.1520 o         1 MOL     -0.589208
    136 C45         2.0970   -3.5220   -1.2270 c3        1 MOL     -0.361911
    137 H62         0.7960   -2.3820    0.7710 hn        1 MOL      0.210797
    138 H63         3.5550   -2.2240   -0.2550 h1        1 MOL      0.183484
    139 H64         2.7380   -3.5720   -2.1100 hc        1 MOL      0.092110
    140 H65         2.2100   -4.4530   -0.6710 hc        1 MOL      0.092110
    141 H66         1.0650   -3.4590   -1.5860 hc        1 MOL      0.092110
    142 N13         3.0060   -0.3650   -2.0250 n         1 MOL     -0.553600
    143 C46         4.4250   -0.6130   -2.0270 c3        1 MOL      0.017431
    144 C47         4.9490   -2.0150   -2.5680 c         1 MOL      0.757420
    145 O19         4.4800   -2.3760   -3.6930 o         1 MOL     -0.605164
    146 C48         5.0770    0.4860   -2.9060 c3        1 MOL     -0.407404
    147 H67         2.7430    0.3340   -2.7030 hn        1 MOL      0.364701
    148 H68         4.8410   -0.5010   -1.0260 h1        1 MOL      0.080117
    149 H69         6.1490    0.4380   -3.0480 hc        1 MOL      0.117717
    150 H70         4.6780    0.2380   -3.8890 hc        1 MOL      0.117717
    151 H71         4.8410    1.4960   -2.5630 hc        1 MOL      0.117717
    152 N14         5.6620   -2.8750   -1.9080 n         1 MOL     -0.652015
    153 C49         6.2790   -2.7520   -0.6020 c3        1 MOL     -0.261206
    154 C50         6.4100   -4.1020    0.0910 c         1 MOL      0.674522
    155 O20         6.2070   -4.1660    1.2940 o         1 MOL     -0.562603
    156 C51         7.6150   -2.0280   -0.6490 c3        1 MOL      0.243898
    157 C52         8.7990   -2.7860   -1.2880 c3        1 MOL     -0.325983
    158 C53         8.7130   -2.7850   -2.7780 c         1 MOL      0.827590
    159 O21         9.4080   -2.0440   -3.5340 o         1 MOL     -0.742504
    160 O22         8.0510   -3.7070   -3.2060 o         1 MOL     -0.742504
    161 H72         5.9940   -3.6280   -2.5000 hn        1 MOL      0.338482
    162 H73         5.6700   -2.0820   -0.0060 h1        1 MOL      0.136397
    163 H74         7.9150   -1.7910    0.3720 hc        1 MOL     -0.042178
    164 H75         7.4010   -1.0790   -1.1320 hc        1 MOL     -0.042178
    165 H76         8.8260   -3.8090   -0.9320 hc        1 MOL      0.046278
    166 H77         9.7120   -2.2160   -1.0890 hc        1 MOL      0.046278
    167 N15         6.6210   -5.1900   -0.6690 n         1 MOL     -0.355474
    168 C54         6.7300   -6.5030    0.0230 c3        1 MOL     -0.055161
    169 H78         7.7150   -6.9310   -0.1670 h1        1 MOL      0.054306
    170 H79         6.5970   -6.3610    1.0950 h1        1 MOL      0.054306
    171 H80         5.9620   -7.1770   -0.3540 h1        1 MOL      0.054306
    172 H81         6.8400   -5.1940   -1.6570 hn        1 MOL      0.317050
    173 Ca1        -1.5630    0.1310   -0.9320 Ca        1 MOL      1.752011
    174 O23        -1.1210   -2.4340   -1.4170 oh        1 MOL     -0.805775
    175 H82        -1.1100   -2.9520   -0.6120 ho        1 MOL      0.410930
    176 H83        -0.9580   -3.0610   -2.1180 ho        1 MOL      0.410930
    177 O24        -2.7090   -0.9630   -3.4170 oh        1 MOL     -0.805775
    178 H84        -2.2670   -0.9450   -4.2680 ho        1 MOL      0.410930
    179 H85        -3.3820   -1.6320   -3.5180 ho        1 MOL      0.410930
@<TRIPOS>BOND
     1    1    2 1   
     2    1    4 1   
     3    1    5 1   
     4    1    6 1   
     5    2    3 2   
     6    2    7 1   
     7    7    8 1   
     8    7   15 1   
     9    8    9 1   
    10    8   11 1   
    11    8   16 1   
    12    9   10 2   
    13    9   19 1   
    14   11   12 1   
    15   11   17 1   
    16   11   18 1   
    17   12   13 1   
    18   12   14 1   
    19   19   20 1   
    20   19   28 1   
    21   20   21 1   
    22   20   23 1   
    23   20   29 1   
    24   21   22 2   
    25   21   41 1   
    26   23   24 1   
    27   23   30 1   
    28   23   31 1   
    29   24   25 1   
    30   24   32 1   
    31   24   33 1   
    32   25   26 1   
    33   25   34 1   
    34   25   35 1   
    35   26   27 1   
    36   26   36 1   
    37   26   37 1   
    38   27   38 1   
    39   27   39 1   
    40   27   40 1   
    41   41   42 1   
    42   41   49 1   
    43   42   43 1   
    44   42   45 1   
    45   42   50 1   
    46   43   44 2   
    47   43   53 1   
    48   45   46 1   
    49   45   51 1   
    50   45   52 1   
    51   46   47 1   
    52   46   48 1   
    53   53   54 1   
    54   53   57 1   
    55   54   55 1   
    56   54   58 1   
    57   54   59 1   
    58   55   56 2   
    59   55   60 1   
    60   60   61 1   
    61   60   68 1   
    62   61   62 1   
    63   61   64 1   
    64   61   69 1   
    65   62   63 2   
    66   62   74 1   
    67   64   65 1   
    68   64   70 1   
    69   64   71 1   
    70   65   66 1   
    71   65   67 2   
    72   66   72 1   
    73   66   73 1   
    74   74   75 1   
    75   74   78 1   
    76   75   76 1   
    77   75   79 1   
    78   75   80 1   
    79   76   77 2   
    80   76   81 1   
    81   81   82 1   
    82   81   93 1   
    83   82   83 1   
    84   82   85 1   
    85   82   94 1   
    86   83   84 2   
    87   83  102 1   
    88   85   86 1   
    89   85   95 1   
    90   85   96 1   
    91   86   87 ar  
    92   86   88 ar  
    93   87   89 ar  
    94   87   97 1   
    95   88   90 ar  
    96   88   98 1   
    97   89   91 ar  
    98   89   99 1   
    99   90   91 ar  
   100   90  100 1   
   101   91   92 1   
   102   92  101 1   
   103  102  103 1   
   104  102  110 1   
   105  103  104 1   
   106  103  106 1   
   107  103  111 1   
   108  104  105 2   
   109  104  121 1   
   110  106  107 1   
   111  106  108 1   
   112  106  112 1   
   113  107  109 1   
   114  107  113 1   
   115  107  114 1   
   116  108  115 1   
   117  108  116 1   
   118  108  117 1   
   119  109  118 1   
   120  109  119 1   
   121  109  120 1   
   122  121  122 1   
   123  121  127 1   
   124  122  123 1   
   125  122  125 1   
   126  122  128 1   
   127  123  124 2   
   128  123  132 1   
   129  125  126 1   
   130  125  129 1   
   131  125  130 1   
   132  126  131 1   
   133  132  133 1   
   134  132  137 1   
   135  133  134 1   
   136  133  136 1   
   137  133  138 1   
   138  134  135 2   
   139  134  142 1   
   140  136  139 1   
   141  136  140 1   
   142  136  141 1   
   143  142  143 1   
   144  142  147 1   
   145  143  144 1   
   146  143  146 1   
   147  143  148 1   
   148  144  145 2   
   149  144  152 1   
   150  146  149 1   
   151  146  150 1   
   152  146  151 1   
   153  152  153 1   
   154  152  161 1   
   155  153  154 1   
   156  153  156 1   
   157  153  162 1   
   158  154  155 2   
   159  154  167 1   
   160  156  157 1   
   161  156  163 1   
   162  156  164 1   
   163  157  158 1   
   164  157  165 1   
   165  157  166 1   
   166  158  159 1   
   167  158  160 1   
   168  167  168 1   
   169  167  172 1   
   170  168  169 1   
   171  168  170 1   
   172  168  171 1   
   173  174  175 1   
   174  174  176 1   
   175  177  178 1   
   176  177  179 1   
@<TRIPOS>SUBSTRUCTURE
     1 MOL         1 TEMP              0 ****  ****    0 ROOT
