@<TRIPOS>MOLECULE
MOL
  178   175     1     0     0
SMALL
resp


@<TRIPOS>ATOM
      1 C1          2.5330   -2.3700    4.4910 c3        1 MOL     -0.318024
      2 C2          3.5810   -1.7480    3.5140 c         1 MOL      0.579392
      3 O1          3.5580   -1.9740    2.3290 o         1 MOL     -0.472506
      4 H1          1.5480   -1.9550    4.2780 hc        1 MOL      0.080145
      5 H2          2.5090   -3.4520    4.3570 hc        1 MOL      0.080145
      6 H3          2.8110   -2.1360    5.5180 hc        1 MOL      0.080145
      7 N1          4.6590   -1.1640    3.9890 n         1 MOL     -0.467137
      8 C3          5.7010   -0.4670    3.2150 c3        1 MOL      0.056303
      9 C4          6.3780   -1.3740    2.2340 c         1 MOL      0.781545
     10 O2          6.6030   -0.9810    1.1160 o         1 MOL     -0.518022
     11 C5          6.6790    0.1580    4.2330 c3        1 MOL     -0.243258
     12 C6          7.8680    0.9240    3.6230 c         1 MOL      0.678988
     13 O3          7.6480    1.9050    2.8410 o         1 MOL     -0.705034
     14 O4          9.0620    0.5180    3.7650 o         1 MOL     -0.705034
     15 H4          4.7770   -1.2480    4.9910 hn        1 MOL      0.269411
     16 H5          5.2240    0.3490    2.6740 h1        1 MOL      0.071078
     17 H6          6.9860   -0.6630    4.8790 hc        1 MOL      0.003716
     18 H7          6.1250    0.8930    4.8170 hc        1 MOL      0.003716
     19 N2          6.5550   -2.5870    2.7470 n         1 MOL     -0.588790
     20 C7          6.9840   -3.7100    1.9440 c3        1 MOL      0.306069
     21 C8          6.1930   -3.9670    0.6190 c         1 MOL      0.360569
     22 O5          6.7870   -4.3300   -0.3950 o         1 MOL     -0.500964
     23 C9          8.5240   -3.8240    1.8420 c3        1 MOL     -0.418252
     24 H8          6.3430   -2.7210    3.7280 hn        1 MOL      0.295462
     25 H9          6.6110   -4.5900    2.4600 h1        1 MOL      0.013941
     26 H10         8.8960   -3.0570    1.1670 hc        1 MOL      0.105584
     27 H11         8.9640   -3.8020    2.8360 hc        1 MOL      0.105584
     28 H12         8.7990   -4.8120    1.4800 hc        1 MOL      0.105584
     29 N3          4.8550   -3.6980    0.6190 n         1 MOL     -0.525999
     30 C10         4.0110   -3.7160   -0.5910 c3        1 MOL      0.379651
     31 C11         4.6200   -2.8110   -1.7310 c         1 MOL      0.208538
     32 O6          4.4900   -3.0890   -2.9210 o         1 MOL     -0.473020
     33 C12         3.8570   -5.1880   -1.0040 c3        1 MOL     -0.187034
     34 C13         2.7970   -5.3970   -2.0760 c         1 MOL      0.734155
     35 O7          2.9180   -6.3950   -2.8010 o         1 MOL     -0.725473
     36 O8          1.8160   -4.5920   -2.1590 o         1 MOL     -0.725473
     37 H13         4.5390   -3.1770    1.4240 hn        1 MOL      0.241590
     38 H14         3.0480   -3.3020   -0.2840 h1        1 MOL     -0.011233
     39 H15         3.6270   -5.9750   -0.2900 hc        1 MOL      0.044499
     40 H16         4.7280   -5.4910   -1.5870 hc        1 MOL      0.044499
     41 N4          5.3280   -1.7310   -1.3360 n         1 MOL      0.205542
     42 C14         6.0090   -0.7510   -2.2030 c3        1 MOL     -0.402258
     43 C15         5.2090    0.4920   -2.7520 c         1 MOL      0.738870
     44 O9          5.6760    1.2280   -3.5780 o         1 MOL     -0.615033
     45 H17         5.3160   -1.5880   -0.3430 hn        1 MOL      0.004264
     46 H18         6.3910   -1.2510   -3.0920 h1        1 MOL      0.135389
     47 H19         6.8540   -0.2860   -1.6930 h1        1 MOL      0.135389
     48 N5          3.9710    0.7010   -2.3100 n         1 MOL     -0.418173
     49 C16         3.1480    1.7240   -2.9820 c3        1 MOL     -0.009798
     50 C17         3.3450    3.1140   -2.3140 c         1 MOL      0.603528
     51 O10         3.3290    3.1490   -1.0670 o         1 MOL     -0.532363
     52 C18         1.7020    1.3370   -2.8070 c3        1 MOL     -0.388797
     53 C19         1.4120    0.0350   -3.4680 c         1 MOL      0.831967
     54 N6          0.8140    0.1210   -4.6380 n         1 MOL     -0.853355
     55 O11         1.3970   -1.1060   -3.0330 o         1 MOL     -0.647967
     56 H20         3.4930   -0.0190   -1.7860 hn        1 MOL      0.235786
     57 H21         3.4350    1.8130   -4.0320 h1        1 MOL      0.052578
     58 H22         0.9590    2.0710   -3.1160 hc        1 MOL      0.145183
     59 H23         1.4120    1.1570   -1.7640 hc        1 MOL      0.145183
     60 H24         0.6770    0.9680   -5.1790 hn        1 MOL      0.358183
     61 H25         0.6840   -0.8140   -4.9860 hn        1 MOL      0.358183
     62 N7          3.3610    4.1760   -3.0920 n         1 MOL     -0.445740
     63 C20         3.4050    5.5500   -2.5970 c3        1 MOL      0.003433
     64 C21         1.9990    6.1220   -2.2760 c         1 MOL      0.512202
     65 O12         1.0500    5.5820   -2.8830 o         1 MOL     -0.515673
     66 H26         3.3900    4.0950   -4.0940 hn        1 MOL      0.293530
     67 H27         3.9550    6.1940   -3.2930 h1        1 MOL      0.059690
     68 H28         4.0240    5.5630   -1.6930 h1        1 MOL      0.059690
     69 N8          1.9040    7.0800   -1.3960 n         1 MOL     -0.405975
     70 C22         0.6550    7.7310   -0.9140 c3        1 MOL     -0.219849
     71 C23        -0.2120    6.8900   -0.0540 c         1 MOL      0.495266
     72 O13        -1.2230    7.4190    0.4290 o         1 MOL     -0.580543
     73 C24         1.0450    9.0690   -0.2230 c3        1 MOL      0.410753
     74 C25         1.7280    9.0480    1.1630 c3        1 MOL     -0.330325
     75 O14         1.8520    9.7490   -1.0710 oh        1 MOL     -0.604432
     76 H29         2.7130    7.5960   -1.0930 hn        1 MOL      0.245856
     77 H30        -0.0160    7.9720   -1.7360 h1        1 MOL      0.168861
     78 H31         0.1450    9.6800   -0.1260 h1        1 MOL      0.052014
     79 H32         2.6820    9.2720   -1.1410 ho        1 MOL      0.367042
     80 H33         1.1370    8.6320    1.9750 hc        1 MOL      0.085085
     81 H34         2.5380    8.3250    1.1070 hc        1 MOL      0.085085
     82 H35         2.0540   10.0070    1.5620 hc        1 MOL      0.085085
     83 N9          0.0500    5.5800    0.1170 n         1 MOL     -0.178779
     84 C26        -0.7760    4.5910    0.7700 c3        1 MOL     -0.009754
     85 C27        -0.9840    3.2940   -0.0620 c         1 MOL      0.358474
     86 O15        -0.2990    3.0760   -1.0740 o         1 MOL     -0.371713
     87 C28        -0.1440    4.3390    2.1570 c3        1 MOL      0.030162
     88 C29         1.2660    3.6460    2.0450 c3        1 MOL     -0.279824
     89 C30         0.0490    5.6420    3.0230 c3        1 MOL     -0.148476
     90 C31         1.8230    3.3010    3.4200 c3        1 MOL     -0.338648
     91 H36         0.8610    5.1970   -0.3390 hn        1 MOL      0.144744
     92 H37        -1.7490    5.0390    1.0070 h1        1 MOL      0.084500
     93 H38        -0.8410    3.6980    2.6930 hc        1 MOL      0.019789
     94 H39         2.0230    4.1680    1.4670 hc        1 MOL      0.188244
     95 H40         1.1580    2.6910    1.5220 hc        1 MOL      0.188244
     96 H41         1.0120    6.1010    2.7950 hc        1 MOL      0.043743
     97 H42        -0.7890    6.3260    2.9180 hc        1 MOL      0.043743
     98 H43         0.1740    5.4330    4.0870 hc        1 MOL      0.043743
     99 H44         1.0120    2.8200    3.9700 hc        1 MOL      0.106636
    100 H45         2.6490    2.6130    3.2790 hc        1 MOL      0.106636
    101 H46         2.1330    4.1910    3.9810 hc        1 MOL      0.106636
    102 N10        -1.8950    2.4650    0.4800 n         1 MOL     -0.468985
    103 C32        -2.0940    1.0540    0.0360 c3        1 MOL      0.108943
    104 C33        -3.5600    0.5260    0.1540 c         1 MOL      0.586034
    105 O16        -3.8390   -0.6670    0.3310 o         1 MOL     -0.513612
    106 C34        -1.1410   -0.0200    0.6500 c3        1 MOL     -0.063682
    107 C35        -0.8230   -1.1210   -0.3320 c         1 MOL      0.490131
    108 O17         0.3040   -1.7430   -0.3090 o         1 MOL     -0.648671
    109 O18        -1.6420   -1.4950   -1.2330 o         1 MOL     -0.648671
    110 H47        -2.4320    2.8250    1.2640 hn        1 MOL      0.266054
    111 H48        -1.9490    1.1900   -1.0340 h1        1 MOL      0.054146
    112 H49        -1.5760   -0.5660    1.4790 hc        1 MOL      0.034180
    113 H50        -0.1690    0.4260    0.8710 hc        1 MOL      0.034180
    114 N11        -4.5860    1.3810    0.2080 n         1 MOL     -0.514081
    115 C36        -6.0050    0.9010    0.0430 c3        1 MOL      0.255660
    116 C37        -6.5090   -0.2240    0.9440 c         1 MOL      0.457229
    117 O19        -6.3350    0.0010    2.0690 o         1 MOL     -0.552519
    118 C38        -6.9300    2.1940    0.0540 c3        1 MOL     -0.308425
    119 C39        -8.3810    1.8400   -0.3850 ca        1 MOL      0.071628
    120 C40        -8.9490    2.1600   -1.6270 ca        1 MOL     -0.137561
    121 C41        -9.1830    1.1600    0.5680 ca        1 MOL     -0.137561
    122 C42       -10.2690    1.8310   -1.9860 ca        1 MOL     -0.132500
    123 C43       -10.4400    0.7290    0.2290 ca        1 MOL     -0.132500
    124 C44       -10.9430    1.0000   -1.1010 ca        1 MOL     -0.104735
    125 H51        -4.3830    2.3490    0.0120 hn        1 MOL      0.268765
    126 H52        -6.0550    0.4470   -0.9500 h1        1 MOL     -0.027934
    127 H53        -6.5450    2.9090   -0.6770 hc        1 MOL      0.116852
    128 H54        -6.8460    2.6010    1.0630 hc        1 MOL      0.116852
    129 H55        -8.4270    2.7980   -2.3310 ha        1 MOL      0.118805
    130 H56        -8.9940    1.0990    1.6280 ha        1 MOL      0.118805
    131 H57       -10.8390    2.0460   -2.8780 ha        1 MOL      0.122745
    132 H58       -11.0760    0.2160    0.9260 ha        1 MOL      0.122745
    133 H59       -11.9820    0.7670   -1.2880 ha        1 MOL      0.091654
    134 N12        -7.1620   -1.3210    0.5600 n         1 MOL     -0.006366
    135 C45        -7.4730   -2.4390    1.4490 c3        1 MOL      0.095737
    136 C46        -6.3390   -2.9650    2.3230 c         1 MOL      0.191446
    137 O20        -6.6150   -3.5440    3.3690 o         1 MOL     -0.516075
    138 C47        -7.9570   -3.5040    0.4860 c3        1 MOL     -0.063496
    139 C48        -8.6970   -2.6440   -0.5540 c3        1 MOL     -0.013953
    140 C49        -7.7260   -1.4490   -0.7920 c3        1 MOL      0.024595
    141 H60        -8.2480   -2.0470    2.1150 h1        1 MOL      0.043857
    142 H61        -7.1930   -4.0520   -0.0530 hc        1 MOL      0.044523
    143 H62        -8.6900   -4.1690    0.9420 hc        1 MOL      0.044523
    144 H63        -8.8460   -3.1600   -1.5000 hc        1 MOL     -0.002529
    145 H64        -9.6410   -2.2690   -0.1610 hc        1 MOL     -0.002529
    146 H65        -6.8750   -1.7110   -1.4250 h1        1 MOL      0.020282
    147 H66        -8.2450   -0.5550   -1.1310 h1        1 MOL      0.020282
    148 N13        -5.0910   -2.8100    1.9510 n         1 MOL      0.079342
    149 C50        -3.8940   -3.1800    2.7250 c3        1 MOL     -0.036817
    150 C51        -3.4770   -2.1170    3.7310 c         1 MOL      0.431041
    151 O21        -3.0880   -2.4690    4.8360 o         1 MOL     -0.535989
    152 C52        -2.7450   -3.4660    1.7550 c3        1 MOL     -0.176804
    153 C53        -2.8720   -4.7160    0.8480 c3        1 MOL      0.104243
    154 C54        -1.9940   -4.6500   -0.4100 c         1 MOL      0.599207
    155 O22        -0.7210   -4.7560   -0.3180 o         1 MOL     -0.743847
    156 O23        -2.5090   -4.4060   -1.5340 o         1 MOL     -0.743847
    157 H67        -4.9880   -2.3190    1.0770 hn        1 MOL      0.062213
    158 H68        -4.0340   -4.0370    3.3900 h1        1 MOL      0.072370
    159 H69        -1.9030   -3.6630    2.4210 hc        1 MOL      0.116809
    160 H70        -2.5570   -2.6240    1.0930 hc        1 MOL      0.116809
    161 H71        -3.9410   -4.8290    0.6360 hc        1 MOL     -0.054306
    162 H72        -2.5320   -5.6080    1.3720 hc        1 MOL     -0.054306
    163 N14        -3.6890   -0.8080    3.4320 n         1 MOL     -0.101706
    164 C55        -3.5070    0.3260    4.3850 c3        1 MOL     -0.280223
    165 H73        -4.1330    0.1660    5.2620 h1        1 MOL      0.103191
    166 H74        -2.4630    0.3810    4.6900 h1        1 MOL      0.103191
    167 H75        -3.7940    1.2590    3.9000 h1        1 MOL      0.103191
    168 H76        -4.1260   -0.6160    2.5470 hn        1 MOL      0.143945
    169 Ca1        -0.2350   -3.2220   -2.4230 Ca        1 MOL      1.744585
    170 O24         0.9620   -3.3340   -4.9580 oh        1 MOL     -0.813757
    171 H77         1.7420   -3.8870   -4.9790 ho        1 MOL      0.396366
    172 H78         0.8230   -3.0900   -5.8730 ho        1 MOL      0.396366
    173 O25        -0.9460   -5.4300   -4.1090 oh        1 MOL     -0.813757
    174 H79        -1.8420   -5.7120   -4.3140 ho        1 MOL      0.396366
    175 H80        -0.4540   -6.2510   -4.0370 ho        1 MOL      0.396366
    176 O26        -2.2680   -2.5890   -4.1150 oh        1 MOL     -0.813757
    177 H81        -2.2080   -3.1560   -4.8800 ho        1 MOL      0.396366
    178 H82        -3.1440   -2.1940   -4.1810 ho        1 MOL      0.396366
@<TRIPOS>BOND
     1    1    2 1   
     2    1    4 1   
     3    1    5 1   
     4    1    6 1   
     5    2    3 2   
     6    2    7 1   
     7    7    8 1   
     8    7   15 1   
     9    8    9 1   
    10    8   11 1   
    11    8   16 1   
    12    9   10 2   
    13    9   19 1   
    14   11   12 1   
    15   11   17 1   
    16   11   18 1   
    17   12   13 1   
    18   12   14 1   
    19   19   20 1   
    20   19   24 1   
    21   20   21 1   
    22   20   23 1   
    23   20   25 1   
    24   21   22 2   
    25   21   29 1   
    26   23   26 1   
    27   23   27 1   
    28   23   28 1   
    29   29   30 1   
    30   29   37 1   
    31   30   31 1   
    32   30   33 1   
    33   30   38 1   
    34   31   32 2   
    35   31   41 1   
    36   33   34 1   
    37   33   39 1   
    38   33   40 1   
    39   34   35 1   
    40   34   36 1   
    41   41   42 1   
    42   41   45 1   
    43   42   43 1   
    44   42   46 1   
    45   42   47 1   
    46   43   44 2   
    47   43   48 1   
    48   48   49 1   
    49   48   56 1   
    50   49   50 1   
    51   49   52 1   
    52   49   57 1   
    53   50   51 2   
    54   50   62 1   
    55   52   53 1   
    56   52   58 1   
    57   52   59 1   
    58   53   54 1   
    59   53   55 2   
    60   54   60 1   
    61   54   61 1   
    62   62   63 1   
    63   62   66 1   
    64   63   64 1   
    65   63   67 1   
    66   63   68 1   
    67   64   65 2   
    68   64   69 1   
    69   69   70 1   
    70   69   76 1   
    71   70   71 1   
    72   70   73 1   
    73   70   77 1   
    74   71   72 2   
    75   71   83 1   
    76   73   74 1   
    77   73   75 1   
    78   73   78 1   
    79   74   80 1   
    80   74   81 1   
    81   74   82 1   
    82   75   79 1   
    83   83   84 1   
    84   83   91 1   
    85   84   85 1   
    86   84   87 1   
    87   84   92 1   
    88   85   86 2   
    89   85  102 1   
    90   87   88 1   
    91   87   89 1   
    92   87   93 1   
    93   88   90 1   
    94   88   94 1   
    95   88   95 1   
    96   89   96 1   
    97   89   97 1   
    98   89   98 1   
    99   90   99 1   
   100   90  100 1   
   101   90  101 1   
   102  102  103 1   
   103  102  110 1   
   104  103  104 1   
   105  103  106 1   
   106  103  111 1   
   107  104  105 2   
   108  104  114 1   
   109  106  107 1   
   110  106  112 1   
   111  106  113 1   
   112  107  108 1   
   113  107  109 1   
   114  114  115 1   
   115  114  125 1   
   116  115  116 1   
   117  115  118 1   
   118  115  126 1   
   119  116  117 2   
   120  116  134 1   
   121  118  119 1   
   122  118  127 1   
   123  118  128 1   
   124  119  120 ar  
   125  119  121 ar  
   126  120  122 ar  
   127  120  129 1   
   128  121  123 ar  
   129  121  130 1   
   130  122  124 ar  
   131  122  131 1   
   132  123  124 ar  
   133  123  132 1   
   134  124  133 1   
   135  134  135 1   
   136  134  140 1   
   137  135  136 1   
   138  135  138 1   
   139  135  141 1   
   140  136  137 2   
   141  136  148 1   
   142  138  139 1   
   143  138  142 1   
   144  138  143 1   
   145  139  140 1   
   146  139  144 1   
   147  139  145 1   
   148  140  146 1   
   149  140  147 1   
   150  148  149 1   
   151  148  157 1   
   152  149  150 1   
   153  149  152 1   
   154  149  158 1   
   155  150  151 2   
   156  150  163 1   
   157  152  153 1   
   158  152  159 1   
   159  152  160 1   
   160  153  154 1   
   161  153  161 1   
   162  153  162 1   
   163  154  155 1   
   164  154  156 1   
   165  163  164 1   
   166  163  168 1   
   167  164  165 1   
   168  164  166 1   
   169  164  167 1   
   170  170  171 1   
   171  170  172 1   
   172  173  174 1   
   173  173  175 1   
   174  176  177 1   
   175  176  178 1   
@<TRIPOS>SUBSTRUCTURE
     1 MOL         1 TEMP              0 ****  ****    0 ROOT
