@<TRIPOS>MOLECULE
MOL
  198   191     1     0     0
SMALL
resp


@<TRIPOS>ATOM
      1 C1          3.8500   -2.6970   -2.8930 c3        1 MOL     -0.092326
      2 C2          2.8550   -3.1270   -1.7240 c         1 MOL      0.819328
      3 O1          2.3310   -2.1970   -1.1040 o         1 MOL     -0.534113
      4 H1          3.2730   -2.3840   -3.7630 hc        1 MOL     -0.003402
      5 H2          4.4740   -1.8700   -2.5550 hc        1 MOL     -0.003402
      6 H3          4.4820   -3.5430   -3.1620 hc        1 MOL     -0.003402
      7 N1          2.6100   -4.4440   -1.4970 n         1 MOL     -0.895619
      8 C3          1.7960   -4.9570   -0.4140 c3        1 MOL     -0.049912
      9 C4          0.3360   -4.4940   -0.4640 c         1 MOL      0.750555
     10 O2         -0.3700   -4.7040    0.5140 o         1 MOL     -0.547417
     11 C5          2.4180   -4.6640    0.9650 c3        1 MOL     -0.485975
     12 C6          3.9210   -4.7990    0.9630 c         1 MOL      0.728096
     13 O3          4.6220   -3.7640    0.9620 o         1 MOL     -0.712508
     14 O4          4.4940   -5.9190    0.9430 o         1 MOL     -0.712508
     15 H4          2.8410   -5.2000   -2.1280 hn        1 MOL      0.415723
     16 H5          1.6570   -6.0220   -0.5570 h1        1 MOL      0.137870
     17 H6          2.0400   -5.3140    1.7600 hc        1 MOL      0.190128
     18 H7          2.2340   -3.6480    1.3050 hc        1 MOL      0.190128
     19 N2         -0.1840   -4.0470   -1.6310 n         1 MOL     -0.492642
     20 C7         -1.5400   -3.5950   -1.8750 c3        1 MOL     -0.584620
     21 C8         -2.6060   -4.7300   -1.8780 c         1 MOL      0.781636
     22 O5         -2.3510   -5.8850   -2.1140 o         1 MOL     -0.615315
     23 C9         -1.5230   -2.6540   -3.1670 c3        1 MOL      0.304923
     24 C10        -0.9230   -3.3430   -4.4180 c3        1 MOL      0.023242
     25 C11        -0.6420   -1.4790   -2.8110 c3        1 MOL     -0.100250
     26 C12        -0.9540   -2.5080   -5.7430 c3        1 MOL     -0.044422
     27 H8          0.4560   -3.9210   -2.4070 hn        1 MOL      0.337762
     28 H9         -1.8930   -2.9500   -1.0680 h1        1 MOL      0.286851
     29 H10        -2.5260   -2.3090   -3.4180 hc        1 MOL      0.059406
     30 H11        -1.6350   -4.1240   -4.7050 hc        1 MOL     -0.015801
     31 H12         0.0900   -3.7370   -4.3140 hc        1 MOL     -0.015801
     32 H13        -0.8340   -1.0360   -1.8330 hc        1 MOL      0.028664
     33 H14         0.3940   -1.7820   -2.9600 hc        1 MOL      0.028664
     34 H15        -0.9240   -0.6990   -3.5240 hc        1 MOL      0.028664
     35 H16        -0.4160   -1.5620   -5.7340 hc        1 MOL     -0.001546
     36 H17        -0.5050   -3.1150   -6.5200 hc        1 MOL     -0.001546
     37 H18        -1.9850   -2.2420   -5.9740 hc        1 MOL     -0.001546
     38 N3         -3.8780   -4.4830   -1.6210 n         1 MOL     -0.508589
     39 C13        -4.6260   -3.2630   -1.2780 c3        1 MOL     -0.093227
     40 C14        -5.1750   -3.1810    0.1410 c         1 MOL      0.566318
     41 O6         -5.4260   -2.0760    0.6420 o         1 MOL     -0.515540
     42 C15        -5.6780   -3.0840   -2.3640 c3        1 MOL     -0.167704
     43 C16        -6.6030   -4.2900   -2.6620 c         1 MOL      0.716464
     44 O7         -6.6020   -5.3360   -1.9260 o         1 MOL     -0.677822
     45 O8         -7.4540   -4.1980   -3.5650 o         1 MOL     -0.677822
     46 H19        -4.3990   -5.3390   -1.6910 hn        1 MOL      0.263450
     47 H20        -4.0380   -2.3530   -1.4130 h1        1 MOL      0.008375
     48 H21        -5.1820   -2.7870   -3.2880 hc        1 MOL      0.064365
     49 H22        -6.3180   -2.2400   -2.0850 hc        1 MOL      0.064365
     50 N4         -5.5670   -4.2990    0.7330 n         1 MOL     -0.212400
     51 C17        -6.0880   -4.2730    2.1430 c3        1 MOL     -0.262945
     52 C18        -7.4440   -3.4990    2.2200 c         1 MOL      0.542856
     53 O9         -8.5250   -3.9650    1.8640 o         1 MOL     -0.540675
     54 H23        -5.1430   -5.1310    0.3410 hn        1 MOL      0.259455
     55 H24        -5.3820   -3.8400    2.8480 h1        1 MOL      0.101749
     56 H25        -6.3860   -5.2690    2.4910 h1        1 MOL      0.101749
     57 N5         -7.3440   -2.2960    2.7980 n         1 MOL     -0.386196
     58 C19        -8.4080   -1.2590    2.9380 c3        1 MOL     -0.062455
     59 C20        -8.8130   -0.5150    1.6640 c         1 MOL      0.430769
     60 O10        -9.9090    0.0840    1.5780 o         1 MOL     -0.601095
     61 C21        -7.9620   -0.3480    4.1640 c3        1 MOL     -0.227247
     62 C22        -6.5880    0.2390    3.8860 c         1 MOL      0.739240
     63 O11        -6.2890    0.8430    2.8250 o         1 MOL     -0.706151
     64 O12        -5.7960    0.0490    4.8040 o         1 MOL     -0.706151
     65 H26        -6.4490   -2.0760    3.2230 hn        1 MOL      0.294222
     66 H27        -9.3020   -1.8360    3.1730 h1        1 MOL      0.101088
     67 H28        -7.8570   -1.0090    5.0310 hc        1 MOL      0.046611
     68 H29        -8.6360    0.4530    4.4670 hc        1 MOL      0.046611
     69 N6         -8.0110   -0.6640    0.6120 n         1 MOL      0.001961
     70 C23        -8.2910   -0.1940   -0.7690 c3        1 MOL     -0.420539
     71 C24        -7.9910    1.2920   -1.0910 c         1 MOL      0.585404
     72 O13        -8.2170    1.6680   -2.2380 o         1 MOL     -0.553706
     73 H30        -7.1970   -1.2210    0.8130 hn        1 MOL      0.169819
     74 H31        -9.3540   -0.3850   -0.9110 h1        1 MOL      0.159561
     75 H32        -7.8290   -0.9300   -1.4320 h1        1 MOL      0.159561
     76 N7         -7.4710    2.0410   -0.1440 n         1 MOL     -0.199263
     77 C25        -7.0370    3.4000   -0.3020 c3        1 MOL      0.079005
     78 C26        -5.9360    3.4400   -1.4870 c         1 MOL      0.370747
     79 O14        -5.9330    4.2830   -2.3750 o         1 MOL     -0.492233
     80 C27        -8.1890    4.4190   -0.5430 c3        1 MOL      0.071947
     81 C28        -9.1500    4.4180    0.6870 c3        1 MOL     -0.292189
     82 C29        -9.9500    5.6790    0.8540 c         1 MOL      0.726695
     83 N8        -11.0300    5.6370    1.6440 n         1 MOL     -0.833360
     84 O15        -9.5530    6.7550    0.4910 o         1 MOL     -0.572189
     85 H33        -7.3350    1.6710    0.7850 hn        1 MOL      0.144629
     86 H34        -6.5340    3.6720    0.6230 h1        1 MOL      0.073451
     87 H35        -8.8010    4.1340   -1.3980 hc        1 MOL      0.001901
     88 H36        -7.7930    5.3990   -0.8040 hc        1 MOL      0.001901
     89 H37        -8.6070    4.2680    1.6190 hc        1 MOL      0.090790
     90 H38        -9.8990    3.6810    0.4270 hc        1 MOL      0.090790
     91 H39       -11.3170    4.7290    1.9890 hn        1 MOL      0.350795
     92 H40       -11.5740    6.4720    1.8200 hn        1 MOL      0.350795
     93 N9         -4.9630    2.5700   -1.3860 n         1 MOL     -0.305683
     94 C30        -3.7810    2.4550   -2.2580 c3        1 MOL     -0.051049
     95 C31        -2.3860    2.2280   -1.5870 c         1 MOL      0.649058
     96 O16        -1.3740    2.4860   -2.1910 o         1 MOL     -0.567451
     97 C32        -3.9980    1.3410   -3.3180 c3        1 MOL      0.037249
     98 C33        -4.2580   -0.0630   -2.7440 c3        1 MOL     -0.291101
     99 C34        -5.0810    1.6120   -4.3590 c3        1 MOL     -0.291101
    100 H41        -4.9140    1.9640   -0.5760 hn        1 MOL      0.202171
    101 H42        -3.6940    3.4170   -2.7670 h1        1 MOL      0.124846
    102 H43        -3.0830    1.1550   -3.8770 hc        1 MOL      0.017681
    103 H44        -4.3440   -0.7820   -3.5650 hc        1 MOL      0.088475
    104 H45        -3.3990   -0.3810   -2.1550 hc        1 MOL      0.088475
    105 H46        -5.0890   -0.0260   -2.0290 hc        1 MOL      0.088475
    106 H47        -6.0300    1.3990   -3.8570 hc        1 MOL      0.088475
    107 H48        -5.0030    2.6560   -4.6620 hc        1 MOL      0.088475
    108 H49        -5.0610    0.8860   -5.1660 hc        1 MOL      0.088475
    109 N10        -2.3990    1.8040   -0.3190 n         1 MOL     -0.694210
    110 C35        -1.1030    1.5950    0.4650 c3        1 MOL      0.120236
    111 C36        -0.4290    2.9420    0.8530 c         1 MOL      0.652580
    112 O17        -1.1000    3.9110    1.1590 o         1 MOL     -0.552109
    113 C37        -1.3100    0.7630    1.6760 c3        1 MOL     -0.098011
    114 C38        -1.2790   -0.6420    1.3260 c         1 MOL      0.744326
    115 N11        -0.2200   -1.2960    1.4840 n         1 MOL     -0.737693
    116 O18        -2.2840   -1.2470    0.8830 o         1 MOL     -0.598346
    117 H50        -3.2330    1.7080    0.2300 hn        1 MOL      0.400677
    118 H51        -0.3820    1.0440   -0.1490 h1        1 MOL      0.020237
    119 H52        -2.2390    0.9370    2.2210 hc        1 MOL      0.046749
    120 H53        -0.4960    0.8010    2.4090 hc        1 MOL      0.046749
    121 H54         0.6070   -0.7790    1.7650 hn        1 MOL      0.324008
    122 H55        -0.1810   -2.2630    1.2230 hn        1 MOL      0.324008
    123 N12         0.8260    2.8460    1.0860 n         1 MOL     -0.405476
    124 C39         1.7400    4.0190    1.1860 c3        1 MOL     -0.001160
    125 C40         3.1570    3.8080    0.6510 c         1 MOL      0.503899
    126 O19         3.6680    2.6510    0.5550 o         1 MOL     -0.511223
    127 C41         1.6670    4.4220    2.6340 c3        1 MOL     -0.087208
    128 C42         2.2850    3.4330    3.6810 ca        1 MOL     -0.056949
    129 C43         3.6270    3.2960    4.0640 ca        1 MOL     -0.053371
    130 C44         1.4000    2.3900    4.1230 ca        1 MOL     -0.053371
    131 C45         4.1310    2.1890    4.7880 ca        1 MOL     -0.395462
    132 C46         1.8720    1.4280    5.0570 ca        1 MOL     -0.395462
    133 C47         3.2430    1.2500    5.3610 ca        1 MOL      0.494863
    134 O20         3.7200    0.2920    6.1600 oh        1 MOL     -0.561598
    135 H56         1.2310    1.9430    0.8620 hn        1 MOL      0.230924
    136 H57         1.2020    4.8670    0.7490 h1        1 MOL      0.084587
    137 H58         0.6200    4.5080    2.9050 hc        1 MOL      0.055580
    138 H59         2.1580    5.3720    2.8040 hc        1 MOL      0.055580
    139 H60         4.2850    4.0420    3.6410 ha        1 MOL      0.119267
    140 H61         0.3360    2.3860    3.9370 ha        1 MOL      0.119267
    141 H62         5.1920    2.0510    4.8440 ha        1 MOL      0.160291
    142 H63         1.1320    0.7470    5.4540 ha        1 MOL      0.160291
    143 H64         4.6830    0.2770    6.1930 ho        1 MOL      0.402619
    144 N13         3.9060    4.8220    0.3600 n         1 MOL     -0.418919
    145 C48         5.1560    4.7620   -0.3430 c3        1 MOL      0.118356
    146 C49         6.4520    4.7920    0.5170 c         1 MOL      0.652701
    147 O21         6.5340    5.4970    1.5310 o         1 MOL     -0.607842
    148 C50         5.1290    5.8190   -1.4910 c3        1 MOL     -0.009149
    149 C51         5.1270    7.2710   -1.0640 c3        1 MOL     -0.064901
    150 C52         5.2680    8.1750   -2.2440 c         1 MOL      0.710301
    151 O22         4.2670    8.3640   -2.9660 o         1 MOL     -0.664362
    152 O23         6.3310    8.7310   -2.4980 o         1 MOL     -0.664362
    153 H65         3.5120    5.7050    0.6620 hn        1 MOL      0.306485
    154 H66         5.2160    3.7900   -0.8310 h1        1 MOL      0.014998
    155 H67         4.1870    5.6610   -2.0220 hc        1 MOL      0.020297
    156 H68         5.9120    5.7060   -2.2350 hc        1 MOL      0.020297
    157 H69         5.9140    7.4760   -0.3490 hc        1 MOL     -0.031307
    158 H70         4.1680    7.3720   -0.5440 hc        1 MOL     -0.031307
    159 N14         7.5820    4.0780    0.1740 n         1 MOL     -0.443196
    160 C53         7.7140    3.0100   -0.8510 c3        1 MOL     -0.435605
    161 C54         7.7740    3.5650   -2.2900 c         1 MOL      0.518312
    162 O24         8.4770    4.5550   -2.4910 o         1 MOL     -0.500202
    163 C55         9.1660    2.3550   -0.6310 c3        1 MOL      0.573273
    164 C56         9.4020    1.7490    0.7450 c3        1 MOL     -0.428687
    165 C57        10.7920    1.0120    0.7330 c         1 MOL      0.688240
    166 O25        10.8350   -0.2610    0.7550 o         1 MOL     -0.709742
    167 O26        11.8200    1.7090    0.7020 o         1 MOL     -0.709742
    168 H71         8.3790    4.3750    0.7200 hn        1 MOL      0.322025
    169 H72         6.9310    2.2610   -0.7850 h1        1 MOL      0.157218
    170 H73         9.9700    3.0360   -0.9100 hc        1 MOL     -0.089945
    171 H74         9.2760    1.5460   -1.3550 hc        1 MOL     -0.089945
    172 H75         8.5660    1.0660    0.9260 hc        1 MOL      0.077990
    173 H76         9.4350    2.5060    1.5340 hc        1 MOL      0.077990
    174 N15         7.1360    2.9330   -3.2730 n         1 MOL     -0.307390
    175 C58         7.2660    3.1320   -4.7210 c3        1 MOL     -0.117754
    176 H77         6.2790    3.0850   -5.1830 h1        1 MOL      0.076687
    177 H78         7.7130    4.1070   -4.9170 h1        1 MOL      0.076687
    178 H79         7.8990    2.3500   -5.1400 h1        1 MOL      0.076687
    179 H80         6.3950    2.3030   -2.9870 hn        1 MOL      0.252682
    180 Ca1         6.9830   -5.1860    0.5060 Ca        1 MOL      1.771173
    181 O27         9.4590   -5.0550    1.9130 oh        1 MOL     -0.868370
    182 H81         9.9390   -5.8480    2.1400 ho        1 MOL      0.403010
    183 H82         9.9950   -4.3460    2.2670 ho        1 MOL      0.403010
    184 O28         8.8160   -5.3420   -1.4440 oh        1 MOL     -0.868370
    185 H83         9.6330   -5.8010   -1.6330 ho        1 MOL      0.403010
    186 H84         8.7770   -4.6280   -2.0750 ho        1 MOL      0.403010
    187 O29         8.2690   -2.6980    0.7050 oh        1 MOL     -0.868370
    188 H85         9.2190   -2.6560    0.5970 ho        1 MOL      0.403010
    189 H86         8.0990   -2.1280    1.4670 ho        1 MOL      0.403010
    190 O30         7.4050   -7.1880    2.1620 oh        1 MOL     -0.868370
    191 H87         7.9030   -7.2280    2.9750 ho        1 MOL      0.403010
    192 H88         6.9610   -8.0370    2.1140 ho        1 MOL      0.403010
    193 O31         6.8640   -3.9490    2.8890 oh        1 MOL     -0.868370
    194 H89         6.1330   -3.4390    3.2180 ho        1 MOL      0.403010
    195 H90         7.4930   -3.9770    3.6130 ho        1 MOL      0.403010
    196 O32         6.5090   -7.3790   -1.0390 oh        1 MOL     -0.868370
    197 H91         5.5970   -7.4210   -1.3220 ho        1 MOL      0.403010
    198 H92         6.9610   -7.9960   -1.6050 ho        1 MOL      0.403010
@<TRIPOS>BOND
     1    1    2 1   
     2    1    4 1   
     3    1    5 1   
     4    1    6 1   
     5    2    3 2   
     6    2    7 1   
     7    7    8 1   
     8    7   15 1   
     9    8    9 1   
    10    8   11 1   
    11    8   16 1   
    12    9   10 2   
    13    9   19 1   
    14   11   12 1   
    15   11   17 1   
    16   11   18 1   
    17   12   13 1   
    18   12   14 1   
    19   19   20 1   
    20   19   27 1   
    21   20   21 1   
    22   20   23 1   
    23   20   28 1   
    24   21   22 2   
    25   21   38 1   
    26   23   24 1   
    27   23   25 1   
    28   23   29 1   
    29   24   26 1   
    30   24   30 1   
    31   24   31 1   
    32   25   32 1   
    33   25   33 1   
    34   25   34 1   
    35   26   35 1   
    36   26   36 1   
    37   26   37 1   
    38   38   39 1   
    39   38   46 1   
    40   39   40 1   
    41   39   42 1   
    42   39   47 1   
    43   40   41 2   
    44   40   50 1   
    45   42   43 1   
    46   42   48 1   
    47   42   49 1   
    48   43   44 1   
    49   43   45 1   
    50   50   51 1   
    51   50   54 1   
    52   51   52 1   
    53   51   55 1   
    54   51   56 1   
    55   52   53 2   
    56   52   57 1   
    57   57   58 1   
    58   57   65 1   
    59   58   59 1   
    60   58   61 1   
    61   58   66 1   
    62   59   60 2   
    63   59   69 1   
    64   61   62 1   
    65   61   67 1   
    66   61   68 1   
    67   62   63 1   
    68   62   64 1   
    69   69   70 1   
    70   69   73 1   
    71   70   71 1   
    72   70   74 1   
    73   70   75 1   
    74   71   72 2   
    75   71   76 1   
    76   76   77 1   
    77   76   85 1   
    78   77   78 1   
    79   77   80 1   
    80   77   86 1   
    81   78   79 2   
    82   78   93 1   
    83   80   81 1   
    84   80   87 1   
    85   80   88 1   
    86   81   82 1   
    87   81   89 1   
    88   81   90 1   
    89   82   83 1   
    90   82   84 2   
    91   83   91 1   
    92   83   92 1   
    93   93   94 1   
    94   93  100 1   
    95   94   95 1   
    96   94   97 1   
    97   94  101 1   
    98   95   96 2   
    99   95  109 1   
   100   97   98 1   
   101   97   99 1   
   102   97  102 1   
   103   98  103 1   
   104   98  104 1   
   105   98  105 1   
   106   99  106 1   
   107   99  107 1   
   108   99  108 1   
   109  109  110 1   
   110  109  117 1   
   111  110  111 1   
   112  110  113 1   
   113  110  118 1   
   114  111  112 2   
   115  111  123 1   
   116  113  114 1   
   117  113  119 1   
   118  113  120 1   
   119  114  115 1   
   120  114  116 2   
   121  115  121 1   
   122  115  122 1   
   123  123  124 1   
   124  123  135 1   
   125  124  125 1   
   126  124  127 1   
   127  124  136 1   
   128  125  126 2   
   129  125  144 1   
   130  127  128 1   
   131  127  137 1   
   132  127  138 1   
   133  128  129 ar  
   134  128  130 ar  
   135  129  131 ar  
   136  129  139 1   
   137  130  132 ar  
   138  130  140 1   
   139  131  133 ar  
   140  131  141 1   
   141  132  133 ar  
   142  132  142 1   
   143  133  134 1   
   144  134  143 1   
   145  144  145 1   
   146  144  153 1   
   147  145  146 1   
   148  145  148 1   
   149  145  154 1   
   150  146  147 2   
   151  146  159 1   
   152  148  149 1   
   153  148  155 1   
   154  148  156 1   
   155  149  150 1   
   156  149  157 1   
   157  149  158 1   
   158  150  151 1   
   159  150  152 1   
   160  159  160 1   
   161  159  168 1   
   162  160  161 1   
   163  160  163 1   
   164  160  169 1   
   165  161  162 2   
   166  161  174 1   
   167  163  164 1   
   168  163  170 1   
   169  163  171 1   
   170  164  165 1   
   171  164  172 1   
   172  164  173 1   
   173  165  166 1   
   174  165  167 1   
   175  174  175 1   
   176  174  179 1   
   177  175  176 1   
   178  175  177 1   
   179  175  178 1   
   180  181  182 1   
   181  181  183 1   
   182  184  185 1   
   183  184  186 1   
   184  187  188 1   
   185  187  189 1   
   186  190  191 1   
   187  190  192 1   
   188  193  194 1   
   189  193  195 1   
   190  196  197 1   
   191  196  198 1   
@<TRIPOS>SUBSTRUCTURE
     1 MOL         1 TEMP              0 ****  ****    0 ROOT
