@<TRIPOS>MOLECULE
MOL
  191   184     1     0     0
SMALL
resp


@<TRIPOS>ATOM
      1 C1         -5.3390   -2.3090    3.4250 c3        1 MOL     -0.308014
      2 C2         -5.8890   -2.3560    1.9730 c         1 MOL      0.568029
      3 O1         -5.7290   -1.3480    1.2770 o         1 MOL     -0.474375
      4 H1         -5.7170   -3.1660    3.9830 hc        1 MOL      0.074652
      5 H2         -4.2500   -2.3420    3.4040 hc        1 MOL      0.074652
      6 H3         -5.6670   -1.3890    3.9090 hc        1 MOL      0.074652
      7 N1         -6.5470   -3.4230    1.5250 n         1 MOL     -0.526618
      8 C3         -7.1520   -3.6200    0.1900 c3        1 MOL      0.251471
      9 C4         -8.1220   -2.4580   -0.3260 c         1 MOL      0.309897
     10 O2         -8.2810   -2.1710   -1.5130 o         1 MOL     -0.391964
     11 C5         -6.1140   -3.8560   -0.9310 c3        1 MOL     -0.291396
     12 C6         -6.6760   -4.4130   -2.2760 c         1 MOL      0.635190
     13 O3         -5.9540   -4.3040   -3.3070 o         1 MOL     -0.590651
     14 O4         -7.8380   -4.9360   -2.3600 o         1 MOL     -0.590651
     15 H4         -6.6700   -4.1420    2.2280 hn        1 MOL      0.310384
     16 H5         -7.7780   -4.5080    0.1800 h1        1 MOL      0.027402
     17 H6         -5.3910   -4.5680   -0.5500 hc        1 MOL      0.087029
     18 H7         -5.5640   -2.9370   -1.1340 hc        1 MOL      0.087029
     19 N2         -8.6850   -1.6160    0.5600 n         1 MOL     -0.292235
     20 C7         -9.4420   -0.3640    0.3030 c3        1 MOL     -0.065215
     21 C8         -8.5620    0.8050   -0.1810 c         1 MOL      0.507203
     22 O5         -9.0900    1.8920   -0.4100 o         1 MOL     -0.531157
     23 C9        -10.2990    0.0090    1.5840 c3        1 MOL     -0.086561
     24 C10        -9.4790    0.6010    2.7330 c3        1 MOL      0.144636
     25 C11       -10.1240    0.5290    4.0900 c3        1 MOL     -0.056696
     26 C12        -9.1160    0.7970    5.2480 c3        1 MOL      0.025948
     27 N3         -8.9750    2.2250    5.5400 n4        1 MOL     -0.260666
     28 H8         -8.5710   -2.0250    1.4860 hn        1 MOL      0.175658
     29 H9        -10.1170   -0.3770   -0.5510 h1        1 MOL      0.145558
     30 H10       -10.8250   -0.8670    1.9530 hc        1 MOL      0.044724
     31 H11       -11.0760    0.7210    1.2850 hc        1 MOL      0.044724
     32 H12        -9.3100    1.6650    2.5650 hc        1 MOL     -0.012742
     33 H13        -8.5260    0.0870    2.8330 hc        1 MOL     -0.012742
     34 H14       -10.6710   -0.3980    4.2640 hc        1 MOL      0.035841
     35 H15       -10.8930    1.3050    4.1660 hc        1 MOL      0.035841
     36 H16        -8.1530    0.3510    5.0020 hx        1 MOL      0.067574
     37 H17        -9.2570    0.3040    6.2160 hx        1 MOL      0.067574
     38 H18        -8.6020    2.6620    4.6990 hn        1 MOL      0.244483
     39 H19        -9.8770    2.5820    5.8150 hn        1 MOL      0.244483
     40 H20        -8.2540    2.3780    6.2260 hn        1 MOL      0.244483
     41 N4         -7.2480    0.6340   -0.4110 n         1 MOL     -0.310221
     42 C13        -6.3110    1.6880   -0.7400 c3        1 MOL      0.180846
     43 C14        -5.4960    1.4750   -2.1040 c         1 MOL      0.632629
     44 O6         -5.4270    0.4180   -2.6240 o         1 MOL     -0.465282
     45 C15        -5.4140    1.9990    0.4500 c3        1 MOL     -0.179526
     46 C16        -4.4390    3.1560    0.3030 c         1 MOL      0.682429
     47 O7         -3.2610    2.9870    0.0930 o         1 MOL     -0.681945
     48 O8         -4.9250    4.2910    0.1640 o         1 MOL     -0.681945
     49 H21        -6.8010   -0.2210   -0.1220 hn        1 MOL      0.153086
     50 H22        -6.9120    2.5880   -0.8940 h1        1 MOL     -0.049564
     51 H23        -4.8850    1.0850    0.7580 hc        1 MOL      0.001106
     52 H24        -6.0800    2.1250    1.3040 hc        1 MOL      0.001106
     53 N5         -5.0660    2.5820   -2.7330 n         1 MOL     -0.550059
     54 C17        -4.5060    2.5210   -4.0590 c3        1 MOL     -0.214977
     55 C18        -3.1650    1.7080   -4.0190 c         1 MOL      0.372991
     56 O9         -2.7790    1.2430   -5.1120 o         1 MOL     -0.502072
     57 H25        -5.1190    3.4810   -2.2750 hn        1 MOL      0.390004
     58 H26        -4.3480    3.5040   -4.4970 h1        1 MOL      0.155149
     59 H27        -5.2760    2.0420   -4.6770 h1        1 MOL      0.155149
     60 N6         -2.4270    1.5640   -2.9250 n         1 MOL     -0.002584
     61 C19        -1.0220    1.0330   -2.9530 c3        1 MOL     -0.226857
     62 C20        -0.9710   -0.4580   -3.1330 c         1 MOL      0.447060
     63 O10        -0.0240   -1.0200   -3.7600 o         1 MOL     -0.522400
     64 C21        -0.1550    1.5360   -1.7710 c3        1 MOL     -0.093906
     65 C22         0.0460    3.0010   -1.7960 c         1 MOL      0.618591
     66 N7          1.2650    3.4550   -1.9980 n         1 MOL     -0.729807
     67 O11        -0.8550    3.8320   -1.5790 o         1 MOL     -0.598340
     68 H28        -2.8260    1.9470   -2.0770 hn        1 MOL      0.069202
     69 H29        -0.5070    1.3870   -3.8530 h1        1 MOL      0.126527
     70 H30         0.7910    1.0030   -1.8400 hc        1 MOL      0.083667
     71 H31        -0.5580    1.1980   -0.8180 hc        1 MOL      0.083667
     72 H32         1.9980    2.7870   -2.2330 hn        1 MOL      0.370132
     73 H33         1.3390    4.4450   -2.1870 hn        1 MOL      0.370132
     74 N8         -2.0520   -1.0680   -2.6830 n         1 MOL     -0.047918
     75 C23        -2.5050   -2.4380   -2.7770 c3        1 MOL     -0.310685
     76 C24        -1.8160   -3.2500   -1.6690 c         1 MOL      0.565905
     77 O12        -2.0510   -4.4500   -1.5740 o         1 MOL     -0.520953
     78 H34        -2.7530   -0.4720   -2.2730 hn        1 MOL      0.190097
     79 H35        -2.2760   -2.8600   -3.7510 h1        1 MOL      0.182192
     80 H36        -3.5370   -2.5340   -2.4360 h1        1 MOL      0.182192
     81 N9         -0.8920   -2.6670   -0.8730 n         1 MOL     -0.494249
     82 C25        -0.1730   -3.1100    0.2830 c3        1 MOL      0.211897
     83 C26         1.0470   -2.1450    0.4960 c         1 MOL      0.258789
     84 O13         1.0010   -0.9340    0.1560 o         1 MOL     -0.470890
     85 C27        -1.1110   -3.2380    1.4790 c3        1 MOL     -0.157473
     86 C28        -0.4070   -3.6550    2.7170 ca        1 MOL     -0.049308
     87 C29         0.0610   -4.9590    2.8310 ca        1 MOL     -0.059158
     88 C30        -0.3430   -2.6410    3.7100 ca        1 MOL     -0.059158
     89 C31         0.6720   -5.2790    4.0620 ca        1 MOL     -0.352389
     90 C32         0.2680   -3.0090    4.9030 ca        1 MOL     -0.352389
     91 C33         0.8010   -4.3300    5.0620 ca        1 MOL      0.438843
     92 O14         1.4400   -4.5310    6.2580 oh        1 MOL     -0.521073
     93 H37        -0.6880   -1.7060   -1.1000 hn        1 MOL      0.176689
     94 H38         0.2800   -4.0480   -0.0120 h1        1 MOL      0.029187
     95 H39        -1.8640   -3.9610    1.1810 hc        1 MOL      0.095222
     96 H40        -1.6550   -2.3170    1.6820 hc        1 MOL      0.095222
     97 H41        -0.0090   -5.6530    2.0040 ha        1 MOL      0.122727
     98 H42        -0.7500   -1.6440    3.5480 ha        1 MOL      0.122727
     99 H43         1.1210   -6.2600    4.1300 ha        1 MOL      0.163276
    100 H44         0.4480   -2.2370    5.6330 ha        1 MOL      0.163276
    101 H45         1.3470   -3.8060    6.8830 ho        1 MOL      0.373768
    102 N10         2.1630   -2.8320    0.7480 n         1 MOL     -0.026602
    103 C34         3.4860   -2.2590    0.8680 c3        1 MOL     -0.098403
    104 C35         4.0120   -1.9250   -0.5400 c         1 MOL      0.191012
    105 O15         4.7330   -0.9090   -0.6870 o         1 MOL     -0.379301
    106 C36         4.3310   -3.2610    1.6110 c3        1 MOL      0.061238
    107 C37         3.8460   -3.3780    3.0820 c3        1 MOL      0.084069
    108 C38         5.9370   -2.9800    1.5710 c3        1 MOL     -0.263831
    109 C39         4.2050   -4.7580    3.6830 c3        1 MOL     -0.154101
    110 H46         2.0980   -3.8120    0.9870 hn        1 MOL      0.178156
    111 H47         3.4680   -1.3450    1.4600 h1        1 MOL      0.107396
    112 H48         4.1940   -4.2080    1.0860 hc        1 MOL     -0.014000
    113 H49         2.7780   -3.2020    3.0410 hc        1 MOL     -0.007110
    114 H50         4.2980   -2.6030    3.7120 hc        1 MOL     -0.007110
    115 H51         6.4410   -3.7690    2.1240 hc        1 MOL      0.088648
    116 H52         6.2740   -2.9950    0.5320 hc        1 MOL      0.088648
    117 H53         6.2140   -2.0240    2.0080 hc        1 MOL      0.088648
    118 H54         3.9080   -4.7540    4.7280 hc        1 MOL      0.041584
    119 H55         3.8170   -5.5610    3.0530 hc        1 MOL      0.041584
    120 H56         5.2950   -4.8670    3.7480 hc        1 MOL      0.041584
    121 N11         3.4870   -2.5470   -1.5850 n         1 MOL     -0.039476
    122 C40         3.7300   -2.2750   -3.0220 c3        1 MOL     -0.032031
    123 C41         5.2210   -2.2640   -3.3930 c         1 MOL      0.344156
    124 O16         5.6860   -1.4610   -4.2400 o         1 MOL     -0.456483
    125 C42         3.0220   -3.2650   -3.9120 c3        1 MOL      0.232314
    126 O17         1.7060   -3.2800   -3.4600 oh        1 MOL     -0.541349
    127 H57         2.8980   -3.3300   -1.3480 hn        1 MOL      0.144722
    128 H58         3.3530   -1.2720   -3.2390 h1        1 MOL      0.080728
    129 H59         3.4730   -4.2300   -3.6920 h1        1 MOL      0.020155
    130 H60         3.1100   -2.9240   -4.9420 h1        1 MOL      0.020155
    131 H61         1.3750   -2.3840   -3.5640 ho        1 MOL      0.372490
    132 N12         6.0220   -2.9930   -2.6230 n         1 MOL     -0.423707
    133 C43         7.4790   -2.8720   -2.6980 c3        1 MOL      0.224714
    134 C44         8.0700   -1.4340   -2.4960 c         1 MOL      0.433198
    135 O18         9.1940   -1.1550   -2.9910 o         1 MOL     -0.540742
    136 C45         8.0040   -3.6150   -3.9560 c3        1 MOL     -0.372205
    137 H62         5.6600   -3.5640   -1.8720 hn        1 MOL      0.271709
    138 H63         7.8510   -3.4420   -1.8390 h1        1 MOL      0.037420
    139 H64         7.5640   -3.1160   -4.8180 hc        1 MOL      0.108485
    140 H65         9.0900   -3.5610   -4.0650 hc        1 MOL      0.108485
    141 H66         7.7640   -4.6790   -3.9350 hc        1 MOL      0.108485
    142 N13         7.4670   -0.5630   -1.6970 n         1 MOL     -0.350458
    143 C46         7.9680    0.7880   -1.3760 c3        1 MOL      0.324244
    144 C47         8.5460    0.8300    0.0660 c         1 MOL      0.446197
    145 O19         8.1430    0.1130    0.9980 o         1 MOL     -0.488007
    146 C48         6.7670    1.7780   -1.5970 c3        1 MOL     -0.029155
    147 H67         6.5920   -0.8690   -1.2920 hn        1 MOL      0.093391
    148 H68         8.7760    1.0090   -2.0740 h1        1 MOL      0.002218
    149 H69         7.1440    2.7960   -1.5700 hc        1 MOL      0.009582
    150 H70         6.3240    1.6850   -2.5940 hc        1 MOL      0.009582
    151 H71         5.9590    1.6330   -0.8720 hc        1 MOL      0.009582
    152 N14         9.4570    1.7600    0.3540 n         1 MOL     -0.530495
    153 C49        10.0730    1.9960    1.7030 c3        1 MOL     -0.091313
    154 C50        10.6850    0.8800    2.4590 c         1 MOL      0.509620
    155 O20        10.8460    0.9730    3.6440 o         1 MOL     -0.486930
    156 C51         9.0890    2.9170    2.5240 c3        1 MOL      0.158364
    157 C52         8.7710    4.3550    2.0190 c3        1 MOL     -0.051700
    158 C53        10.0250    5.2290    1.8300 c         1 MOL      0.567275
    159 O21        10.4740    5.3200    0.6580 o         1 MOL     -0.597437
    160 O22        10.6580    5.6530    2.8640 o         1 MOL     -0.597437
    161 H72         9.6510    2.4860   -0.3290 hn        1 MOL      0.289762
    162 H73        10.9090    2.6480    1.4720 h1        1 MOL      0.139065
    163 H74         9.4520    2.9580    3.5470 hc        1 MOL     -0.013498
    164 H75         8.0920    2.4760    2.5480 hc        1 MOL     -0.013498
    165 H76         8.1460    4.8650    2.7540 hc        1 MOL     -0.028248
    166 H77         8.1100    4.2220    1.1610 hc        1 MOL     -0.028248
    167 N15        11.3250   -0.0790    1.7790 n         1 MOL     -0.356214
    168 C54        11.7390   -1.3730    2.3690 c3        1 MOL     -0.104607
    169 H78        10.8570   -1.9170    2.7060 h1        1 MOL      0.075349
    170 H79        12.2650   -1.9630    1.6190 h1        1 MOL      0.075349
    171 H80        12.3990   -1.1910    3.2170 h1        1 MOL      0.075349
    172 H81        11.2540   -0.0400    0.7730 hn        1 MOL      0.259979
    173 Ca1        -2.1300    5.3410    0.0990 Ca        1 MOL      1.704629
    174 O23         0.0160    4.5670    1.2550 oh        1 MOL     -0.800989
    175 H82         0.0410    4.4290    2.2060 ho        1 MOL      0.380210
    176 H83         0.6520    5.2700    1.0950 ho        1 MOL      0.380210
    177 O24        -3.3090    5.2160   -2.3180 oh        1 MOL     -0.800989
    178 H84        -4.1120    5.4200   -2.7870 ho        1 MOL      0.380210
    179 H85        -2.6210    5.2460   -2.9850 ho        1 MOL      0.380210
    180 O25        -4.1590    7.1900    0.5300 oh        1 MOL     -0.800989
    181 H86        -4.1280    7.8280    1.2380 ho        1 MOL      0.380210
    182 H87        -4.6200    7.6350   -0.1790 ho        1 MOL      0.380210
    183 O26        -0.5040    6.9730   -1.3160 oh        1 MOL     -0.800989
    184 H88        -0.4700    7.9290   -1.4200 ho        1 MOL      0.380210
    185 H89        -0.1280    6.6290   -2.1320 ho        1 MOL      0.380210
    186 O27        -2.5110    4.4490    2.6050 oh        1 MOL     -0.800989
    187 H90        -1.6700    4.3550    3.0400 ho        1 MOL      0.380210
    188 H91        -3.1510    4.4920    3.3150 ho        1 MOL      0.380210
    189 O28        -1.4880    7.4410    1.7200 oh        1 MOL     -0.800989
    190 H92        -1.3780    7.2180    2.6520 ho        1 MOL      0.380210
    191 H93        -1.2670    8.3650    1.6640 ho        1 MOL      0.380210
@<TRIPOS>BOND
     1    1    2 1   
     2    1    4 1   
     3    1    5 1   
     4    1    6 1   
     5    2    3 2   
     6    2    7 1   
     7    7    8 1   
     8    7   15 1   
     9    8    9 1   
    10    8   11 1   
    11    8   16 1   
    12    9   10 2   
    13    9   19 1   
    14   11   12 1   
    15   11   17 1   
    16   11   18 1   
    17   12   13 1   
    18   12   14 1   
    19   19   20 1   
    20   19   28 1   
    21   20   21 1   
    22   20   23 1   
    23   20   29 1   
    24   21   22 2   
    25   21   41 1   
    26   23   24 1   
    27   23   30 1   
    28   23   31 1   
    29   24   25 1   
    30   24   32 1   
    31   24   33 1   
    32   25   26 1   
    33   25   34 1   
    34   25   35 1   
    35   26   27 1   
    36   26   36 1   
    37   26   37 1   
    38   27   38 1   
    39   27   39 1   
    40   27   40 1   
    41   41   42 1   
    42   41   49 1   
    43   42   43 1   
    44   42   45 1   
    45   42   50 1   
    46   43   44 2   
    47   43   53 1   
    48   45   46 1   
    49   45   51 1   
    50   45   52 1   
    51   46   47 1   
    52   46   48 1   
    53   53   54 1   
    54   53   57 1   
    55   54   55 1   
    56   54   58 1   
    57   54   59 1   
    58   55   56 2   
    59   55   60 1   
    60   60   61 1   
    61   60   68 1   
    62   61   62 1   
    63   61   64 1   
    64   61   69 1   
    65   62   63 2   
    66   62   74 1   
    67   64   65 1   
    68   64   70 1   
    69   64   71 1   
    70   65   66 1   
    71   65   67 2   
    72   66   72 1   
    73   66   73 1   
    74   74   75 1   
    75   74   78 1   
    76   75   76 1   
    77   75   79 1   
    78   75   80 1   
    79   76   77 2   
    80   76   81 1   
    81   81   82 1   
    82   81   93 1   
    83   82   83 1   
    84   82   85 1   
    85   82   94 1   
    86   83   84 2   
    87   83  102 1   
    88   85   86 1   
    89   85   95 1   
    90   85   96 1   
    91   86   87 ar  
    92   86   88 ar  
    93   87   89 ar  
    94   87   97 1   
    95   88   90 ar  
    96   88   98 1   
    97   89   91 ar  
    98   89   99 1   
    99   90   91 ar  
   100   90  100 1   
   101   91   92 1   
   102   92  101 1   
   103  102  103 1   
   104  102  110 1   
   105  103  104 1   
   106  103  106 1   
   107  103  111 1   
   108  104  105 2   
   109  104  121 1   
   110  106  107 1   
   111  106  108 1   
   112  106  112 1   
   113  107  109 1   
   114  107  113 1   
   115  107  114 1   
   116  108  115 1   
   117  108  116 1   
   118  108  117 1   
   119  109  118 1   
   120  109  119 1   
   121  109  120 1   
   122  121  122 1   
   123  121  127 1   
   124  122  123 1   
   125  122  125 1   
   126  122  128 1   
   127  123  124 2   
   128  123  132 1   
   129  125  126 1   
   130  125  129 1   
   131  125  130 1   
   132  126  131 1   
   133  132  133 1   
   134  132  137 1   
   135  133  134 1   
   136  133  136 1   
   137  133  138 1   
   138  134  135 2   
   139  134  142 1   
   140  136  139 1   
   141  136  140 1   
   142  136  141 1   
   143  142  143 1   
   144  142  147 1   
   145  143  144 1   
   146  143  146 1   
   147  143  148 1   
   148  144  145 2   
   149  144  152 1   
   150  146  149 1   
   151  146  150 1   
   152  146  151 1   
   153  152  153 1   
   154  152  161 1   
   155  153  154 1   
   156  153  156 1   
   157  153  162 1   
   158  154  155 2   
   159  154  167 1   
   160  156  157 1   
   161  156  163 1   
   162  156  164 1   
   163  157  158 1   
   164  157  165 1   
   165  157  166 1   
   166  158  159 1   
   167  158  160 1   
   168  167  168 1   
   169  167  172 1   
   170  168  169 1   
   171  168  170 1   
   172  168  171 1   
   173  174  175 1   
   174  174  176 1   
   175  177  178 1   
   176  177  179 1   
   177  180  181 1   
   178  180  182 1   
   179  183  184 1   
   180  183  185 1   
   181  186  187 1   
   182  186  188 1   
   183  189  190 1   
   184  189  191 1   
@<TRIPOS>SUBSTRUCTURE
     1 MOL         1 TEMP              0 ****  ****    0 ROOT
