@<TRIPOS>MOLECULE
MOL
  198   191     1     0     0
SMALL
resp


@<TRIPOS>ATOM
      1 C1          2.7910   -6.1030    0.7330 c3        1 MOL     -0.359485
      2 C2          2.1530   -4.7810    0.1540 c         1 MOL      0.661662
      3 O1          2.8890   -4.1770   -0.6100 o         1 MOL     -0.611557
      4 H1          3.8780   -6.0310    0.6870 hc        1 MOL      0.105591
      5 H2          2.4810   -6.2320    1.7700 hc        1 MOL      0.105591
      6 H3          2.4590   -6.9570    0.1440 hc        1 MOL      0.105591
      7 N1          0.8610   -4.3710    0.1980 n         1 MOL     -0.437419
      8 C3         -0.2090   -5.0990    0.8240 c3        1 MOL     -0.161124
      9 C4         -1.1620   -5.7620   -0.1540 c         1 MOL      0.476552
     10 O2         -1.9830   -6.6200    0.2570 o         1 MOL     -0.509266
     11 C5         -0.9580   -4.1930    1.7940 c3        1 MOL     -0.151486
     12 C6         -0.0170   -3.5040    2.7630 c         1 MOL      0.603385
     13 O3          0.4850   -2.4260    2.4150 o         1 MOL     -0.656523
     14 O4          0.1400   -4.0680    3.8620 o         1 MOL     -0.656523
     15 H4          0.6290   -3.4270   -0.0780 hn        1 MOL      0.297773
     16 H5          0.2240   -5.7930    1.5420 h1        1 MOL      0.098676
     17 H6         -1.7310   -4.7490    2.3310 hc        1 MOL      0.071372
     18 H7         -1.5170   -3.5060    1.1530 hc        1 MOL      0.071372
     19 N2         -0.9800   -5.5280   -1.4860 n         1 MOL     -0.182279
     20 C7         -1.8240   -6.0300   -2.5640 c3        1 MOL     -0.456700
     21 C8         -3.3340   -5.7110   -2.4050 c         1 MOL      0.554041
     22 O5         -4.0880   -6.5950   -2.7020 o         1 MOL     -0.528045
     23 C9         -1.1600   -5.5920   -3.9170 c3        1 MOL      0.188746
     24 C10        -0.9800   -4.0330   -4.0430 c3        1 MOL      0.112318
     25 C11         0.2640   -6.3230   -3.9700 c3        1 MOL     -0.252785
     26 C12        -0.4890   -3.6980   -5.5100 c3        1 MOL     -0.273324
     27 H8         -0.2330   -4.9120   -1.7570 hn        1 MOL      0.204542
     28 H9         -1.7340   -7.0990   -2.3530 h1        1 MOL      0.175662
     29 H10        -1.6710   -5.9990   -4.7820 hc        1 MOL      0.048674
     30 H11        -0.4140   -3.5880   -3.2330 hc        1 MOL      0.007988
     31 H12        -1.9490   -3.5440   -3.9980 hc        1 MOL      0.007988
     32 H13         0.6990   -6.1540   -4.9510 hc        1 MOL      0.056031
     33 H14         0.9610   -5.9330   -3.2220 hc        1 MOL      0.056031
     34 H15         0.1380   -7.4090   -3.9110 hc        1 MOL      0.056031
     35 H16        -1.3400   -3.5860   -6.1810 hc        1 MOL      0.056514
     36 H17         0.1150   -2.7950   -5.5440 hc        1 MOL      0.056514
     37 H18         0.0370   -4.5520   -5.9520 hc        1 MOL      0.056514
     38 N3         -3.7210   -4.5260   -1.9150 n         1 MOL     -0.269499
     39 C13        -5.1230   -4.0400   -1.6830 c3        1 MOL      0.097205
     40 C14        -5.2280   -3.0440   -0.4530 c         1 MOL      0.434926
     41 O6         -4.2320   -2.5000    0.0730 o         1 MOL     -0.470509
     42 C15        -5.7090   -3.5180   -2.9870 c3        1 MOL     -0.172262
     43 C16        -7.2190   -3.6090   -3.0180 c         1 MOL      0.716607
     44 O7         -7.7990   -4.3460   -2.2070 o         1 MOL     -0.721425
     45 O8         -7.7680   -2.9240   -3.9190 o         1 MOL     -0.721425
     46 H19        -3.0160   -3.7980   -1.9060 hn        1 MOL      0.154759
     47 H20        -5.6810   -4.9410   -1.4520 h1        1 MOL      0.043534
     48 H21        -5.3190   -4.0750   -3.8300 hc        1 MOL      0.018541
     49 H22        -5.3530   -2.4860   -3.0550 hc        1 MOL      0.018541
     50 N4         -6.4320   -3.0450    0.1770 n         1 MOL     -0.325633
     51 C17        -6.7980   -2.3040    1.3530 c3        1 MOL     -0.166627
     52 C18        -6.5680   -0.8190    1.3970 c         1 MOL      0.489164
     53 O9         -5.7760   -0.3670    2.1850 o         1 MOL     -0.541698
     54 H23        -7.1180   -3.6740   -0.2080 hn        1 MOL      0.270625
     55 H24        -6.1800   -2.7590    2.1200 h1        1 MOL      0.097405
     56 H25        -7.8370   -2.5040    1.6120 h1        1 MOL      0.097405
     57 N5         -7.2460   -0.0380    0.6470 n         1 MOL     -0.267951
     58 C19        -6.8060    1.2900    0.4020 c3        1 MOL      0.064419
     59 C20        -5.8180    1.4980   -0.7720 c         1 MOL      0.657168
     60 O10        -5.6890    0.6660   -1.6780 o         1 MOL     -0.578235
     61 C21        -8.1830    2.0620    0.1510 c3        1 MOL     -0.272116
     62 C22        -9.2650    1.8810    1.2180 c         1 MOL      0.725343
     63 O11       -10.2690    1.1570    1.0390 o         1 MOL     -0.728871
     64 O12        -9.0760    2.5500    2.2810 o         1 MOL     -0.728871
     65 H26        -8.0240   -0.4220    0.1330 hn        1 MOL      0.266233
     66 H27        -6.3680    1.7150    1.3140 h1        1 MOL      0.035568
     67 H28        -8.4870    1.7000   -0.8300 hc        1 MOL      0.033661
     68 H29        -8.0160    3.1280   -0.0050 hc        1 MOL      0.033661
     69 N6         -4.9770    2.5270   -0.7760 n         1 MOL     -0.718218
     70 C23        -5.0290    3.6460    0.2050 c3        1 MOL      0.280436
     71 C24        -4.3990    4.8990   -0.5600 c         1 MOL      0.480364
     72 O13        -4.5070    5.0340   -1.7760 o         1 MOL     -0.516607
     73 H30        -4.3610    2.5870   -1.5730 hn        1 MOL      0.358968
     74 H31        -4.5880    3.2600    1.1270 h1        1 MOL      0.042095
     75 H32        -6.0320    3.9340    0.5050 h1        1 MOL      0.042095
     76 N7         -3.6690    5.7470    0.1680 n         1 MOL     -0.491584
     77 C25        -3.1580    5.6310    1.4960 c3        1 MOL     -0.022358
     78 C26        -2.1850    4.4170    1.6060 c         1 MOL      0.249567
     79 O14        -2.1580    3.6870    2.5630 o         1 MOL     -0.472770
     80 C27        -4.2750    5.8680    2.5950 c3        1 MOL     -0.101497
     81 C28        -5.1100    7.1390    2.4020 c3        1 MOL     -0.093093
     82 C29        -4.3190    8.4390    2.5000 c         1 MOL      0.700299
     83 N8         -4.7350    9.4290    1.7450 n         1 MOL     -0.849279
     84 O15        -3.3110    8.5080    3.0970 o         1 MOL     -0.583735
     85 H33        -3.1620    6.4270   -0.3740 hn        1 MOL      0.292783
     86 H34        -2.5420    6.5240    1.6280 h1        1 MOL      0.123019
     87 H35        -3.9940    5.7520    3.6430 hc        1 MOL      0.075977
     88 H36        -4.9440    5.0170    2.4920 hc        1 MOL      0.075977
     89 H37        -5.8670    7.2840    3.1690 hc        1 MOL      0.032715
     90 H38        -5.6790    7.1150    1.4710 hc        1 MOL      0.032715
     91 H39        -5.6130    9.4050    1.2510 hn        1 MOL      0.371724
     92 H40        -4.0490   10.1650    1.6890 hn        1 MOL      0.371724
     93 N9         -1.4120    4.1920    0.5740 n         1 MOL     -0.147921
     94 C30        -0.5170    3.0000    0.3610 c3        1 MOL     -0.081094
     95 C31        -0.5530    2.4880   -1.1160 c         1 MOL      0.492823
     96 O16        -1.0640    3.1800   -1.9530 o         1 MOL     -0.486988
     97 C32         0.9210    3.3630    0.7640 c3        1 MOL      0.368204
     98 C33         1.1450    3.6320    2.1980 c3        1 MOL     -0.583573
     99 C34         1.5580    4.5820    0.0040 c3        1 MOL     -0.583573
    100 H41        -1.5180    4.9370   -0.1000 hn        1 MOL      0.207707
    101 H42        -0.7640    2.1510    0.9960 h1        1 MOL      0.127518
    102 H43         1.4980    2.4600    0.5600 hc        1 MOL     -0.042275
    103 H44         0.8680    2.6920    2.6590 hc        1 MOL      0.146781
    104 H45         2.2070    3.8810    2.2610 hc        1 MOL      0.146781
    105 H46         0.5780    4.4610    2.6130 hc        1 MOL      0.146781
    106 H47         1.1510    5.5160    0.3850 hc        1 MOL      0.146781
    107 H48         2.6400    4.5620    0.1100 hc        1 MOL      0.146781
    108 H49         1.2190    4.5370   -1.0420 hc        1 MOL      0.146781
    109 N10        -0.1360    1.2490   -1.4050 n         1 MOL     -0.544165
    110 C35        -0.0320    0.7270   -2.7620 c3        1 MOL      0.074800
    111 C36         1.2710    1.1590   -3.4760 c         1 MOL      0.434596
    112 O17         1.2000    1.2340   -4.6970 o         1 MOL     -0.549610
    113 C37        -0.0560   -0.7900   -2.5780 c3        1 MOL     -0.199571
    114 C38        -1.2710   -1.2850   -1.8210 c         1 MOL      0.552281
    115 N11        -2.4940   -0.7200   -1.8260 n         1 MOL     -0.671012
    116 O18        -1.0810   -2.1920   -1.0430 o         1 MOL     -0.491406
    117 H50         0.2160    0.6410   -0.6840 hn        1 MOL      0.360179
    118 H51        -0.8940    0.9400   -3.3920 h1        1 MOL      0.098712
    119 H52         0.8180   -1.0940   -2.0050 hc        1 MOL      0.072883
    120 H53        -0.0440   -1.2640   -3.5570 hc        1 MOL      0.072883
    121 H54        -2.8000   -0.0350   -2.5030 hn        1 MOL      0.356665
    122 H55        -3.1910   -1.1040   -1.2150 hn        1 MOL      0.356665
    123 N12         2.2910    1.5420   -2.8060 n         1 MOL     -0.054847
    124 C39         3.6650    1.6390   -3.1220 c3        1 MOL     -0.241708
    125 C40         4.5360    1.8740   -1.8980 c         1 MOL      0.707021
    126 O19         4.1090    2.4710   -0.9250 o         1 MOL     -0.513737
    127 C41         3.8160    2.7700   -4.1500 c3        1 MOL      0.142515
    128 C42         3.5810    4.1590   -3.6320 ca        1 MOL     -0.224026
    129 C43         4.6400    4.8370   -2.9970 ca        1 MOL      0.009582
    130 C44         2.2930    4.7210   -3.6780 ca        1 MOL      0.009582
    131 C45         4.4380    6.1000   -2.4510 ca        1 MOL     -0.330467
    132 C46         2.1840    6.0820   -3.4010 ca        1 MOL     -0.330467
    133 C47         3.2140    6.7750   -2.6480 ca        1 MOL      0.391240
    134 O20         3.0920    8.1060   -2.4890 oh        1 MOL     -0.489919
    135 H56         2.1640    1.4640   -1.8070 hn        1 MOL      0.143981
    136 H57         4.0270    0.8020   -3.7170 h1        1 MOL      0.065624
    137 H58         3.1700    2.6350   -5.0100 hc        1 MOL      0.021962
    138 H59         4.7830    2.6810   -4.6440 hc        1 MOL      0.021962
    139 H60         5.5830    4.3370   -2.8360 ha        1 MOL      0.105382
    140 H61         1.5170    4.2270   -4.2490 ha        1 MOL      0.105382
    141 H62         5.3240    6.5180   -2.0000 ha        1 MOL      0.152964
    142 H63         1.2810    6.6460   -3.5810 ha        1 MOL      0.152964
    143 H64         2.1720    8.3540   -2.6430 ho        1 MOL      0.341754
    144 N13         5.7630    1.3510   -1.9270 n         1 MOL     -0.778198
    145 C48         6.6940    1.4160   -0.7860 c3        1 MOL      0.303386
    146 C49         7.1650   -0.0230   -0.5750 c         1 MOL      0.419436
    147 O21         8.2570   -0.4450   -0.9590 o         1 MOL     -0.471056
    148 C50         7.8440    2.4200   -1.0920 c3        1 MOL     -0.175328
    149 C51         8.6170    2.5690    0.2030 c3        1 MOL     -0.355603
    150 C52         9.9120    3.4060    0.0370 c         1 MOL      0.806501
    151 O22        10.8900    3.1010    0.7540 o         1 MOL     -0.752223
    152 O23         9.9890    4.3500   -0.7440 o         1 MOL     -0.752223
    153 H65         6.0200    0.7800   -2.7200 hn        1 MOL      0.366746
    154 H66         6.2810    1.7550    0.1680 h1        1 MOL     -0.021170
    155 H67         7.3290    3.3410   -1.3720 hc        1 MOL      0.097631
    156 H68         8.4240    2.1870   -1.9760 hc        1 MOL      0.097631
    157 H69         8.8320    1.5980    0.6570 hc        1 MOL      0.075775
    158 H70         8.0390    3.1600    0.9110 hc        1 MOL      0.075775
    159 N14         6.2420   -0.7700    0.0430 n         1 MOL     -0.289834
    160 C53         6.3770   -2.2670    0.0470 c3        1 MOL      0.021686
    161 C54         6.1010   -2.8540   -1.3650 c         1 MOL      0.352349
    162 O24         6.9400   -3.5890   -1.8430 o         1 MOL     -0.518934
    163 C55         5.5150   -2.8370    1.2250 c3        1 MOL      0.156029
    164 C56         6.0240   -2.4410    2.6370 c3        1 MOL      0.075463
    165 C57         5.2720   -3.0460    3.8290 c         1 MOL      0.516780
    166 O25         4.0820   -2.7560    4.1590 o         1 MOL     -0.672942
    167 O26         5.8360   -4.0100    4.4510 o         1 MOL     -0.672942
    168 H71         5.2890   -0.4190   -0.0050 hn        1 MOL      0.188662
    169 H72         7.4110   -2.5820    0.1990 h1        1 MOL      0.083737
    170 H73         5.5600   -3.9190    1.1430 hc        1 MOL     -0.009056
    171 H74         4.4700   -2.5510    1.0910 hc        1 MOL     -0.009056
    172 H75         5.8190   -1.3740    2.6190 hc        1 MOL     -0.076773
    173 H76         7.1090   -2.5420    2.7240 hc        1 MOL     -0.076773
    174 N15         5.0530   -2.5080   -2.0780 n         1 MOL     -0.075219
    175 C58         4.8220   -2.8780   -3.4640 c3        1 MOL     -0.287577
    176 H77         5.0980   -3.9210   -3.6120 h1        1 MOL      0.109401
    177 H78         3.7670   -2.7440   -3.7050 h1        1 MOL      0.109401
    178 H79         5.4260   -2.2460   -4.1150 h1        1 MOL      0.109401
    179 H80         4.3330   -1.9470   -1.6470 hn        1 MOL      0.177418
    180 Ca1         1.6620   -2.0150    4.9660 Ca        1 MOL      1.736718
    181 O27         2.2490   -4.6140    5.8620 oh        1 MOL     -0.852443
    182 H81         1.8910   -5.4890    5.9990 ho        1 MOL      0.416490
    183 H82         3.1870   -4.7060    5.9970 ho        1 MOL      0.416490
    184 O28         1.3660   -2.3770    7.6440 oh        1 MOL     -0.852443
    185 H83         0.7330   -1.8350    8.1080 ho        1 MOL      0.416490
    186 H84         2.0290   -2.5910    8.3030 ho        1 MOL      0.416490
    187 O29         0.7580    0.4290    4.5160 oh        1 MOL     -0.852443
    188 H85        -0.1820    0.6180    4.4880 ho        1 MOL      0.416490
    189 H86         1.1310    1.1690    4.9880 ho        1 MOL      0.416490
    190 O30         2.9220   -1.0830    2.6210 oh        1 MOL     -0.852443
    191 H87         3.7200   -1.5050    2.9570 ho        1 MOL      0.416490
    192 H88         3.1570   -0.1610    2.5540 ho        1 MOL      0.416490
    193 O31         3.3810   -0.2450    6.1330 oh        1 MOL     -0.852443
    194 H89         3.7190    0.6570    6.2000 ho        1 MOL      0.416490
    195 H90         3.9680   -0.7550    6.6870 ho        1 MOL      0.416490
    196 O32        -0.9090   -1.4380    5.9010 oh        1 MOL     -0.852443
    197 H91        -1.5960   -0.9570    5.4360 ho        1 MOL      0.416490
    198 H92        -1.2110   -1.4740    6.8060 ho        1 MOL      0.416490
@<TRIPOS>BOND
     1    1    2 1   
     2    1    4 1   
     3    1    5 1   
     4    1    6 1   
     5    2    3 2   
     6    2    7 1   
     7    7    8 1   
     8    7   15 1   
     9    8    9 1   
    10    8   11 1   
    11    8   16 1   
    12    9   10 2   
    13    9   19 1   
    14   11   12 1   
    15   11   17 1   
    16   11   18 1   
    17   12   13 1   
    18   12   14 1   
    19   19   20 1   
    20   19   27 1   
    21   20   21 1   
    22   20   23 1   
    23   20   28 1   
    24   21   22 2   
    25   21   38 1   
    26   23   24 1   
    27   23   25 1   
    28   23   29 1   
    29   24   26 1   
    30   24   30 1   
    31   24   31 1   
    32   25   32 1   
    33   25   33 1   
    34   25   34 1   
    35   26   35 1   
    36   26   36 1   
    37   26   37 1   
    38   38   39 1   
    39   38   46 1   
    40   39   40 1   
    41   39   42 1   
    42   39   47 1   
    43   40   41 2   
    44   40   50 1   
    45   42   43 1   
    46   42   48 1   
    47   42   49 1   
    48   43   44 1   
    49   43   45 1   
    50   50   51 1   
    51   50   54 1   
    52   51   52 1   
    53   51   55 1   
    54   51   56 1   
    55   52   53 2   
    56   52   57 1   
    57   57   58 1   
    58   57   65 1   
    59   58   59 1   
    60   58   61 1   
    61   58   66 1   
    62   59   60 2   
    63   59   69 1   
    64   61   62 1   
    65   61   67 1   
    66   61   68 1   
    67   62   63 1   
    68   62   64 1   
    69   69   70 1   
    70   69   73 1   
    71   70   71 1   
    72   70   74 1   
    73   70   75 1   
    74   71   72 2   
    75   71   76 1   
    76   76   77 1   
    77   76   85 1   
    78   77   78 1   
    79   77   80 1   
    80   77   86 1   
    81   78   79 2   
    82   78   93 1   
    83   80   81 1   
    84   80   87 1   
    85   80   88 1   
    86   81   82 1   
    87   81   89 1   
    88   81   90 1   
    89   82   83 1   
    90   82   84 2   
    91   83   91 1   
    92   83   92 1   
    93   93   94 1   
    94   93  100 1   
    95   94   95 1   
    96   94   97 1   
    97   94  101 1   
    98   95   96 2   
    99   95  109 1   
   100   97   98 1   
   101   97   99 1   
   102   97  102 1   
   103   98  103 1   
   104   98  104 1   
   105   98  105 1   
   106   99  106 1   
   107   99  107 1   
   108   99  108 1   
   109  109  110 1   
   110  109  117 1   
   111  110  111 1   
   112  110  113 1   
   113  110  118 1   
   114  111  112 2   
   115  111  123 1   
   116  113  114 1   
   117  113  119 1   
   118  113  120 1   
   119  114  115 1   
   120  114  116 2   
   121  115  121 1   
   122  115  122 1   
   123  123  124 1   
   124  123  135 1   
   125  124  125 1   
   126  124  127 1   
   127  124  136 1   
   128  125  126 2   
   129  125  144 1   
   130  127  128 1   
   131  127  137 1   
   132  127  138 1   
   133  128  129 ar  
   134  128  130 ar  
   135  129  131 ar  
   136  129  139 1   
   137  130  132 ar  
   138  130  140 1   
   139  131  133 ar  
   140  131  141 1   
   141  132  133 ar  
   142  132  142 1   
   143  133  134 1   
   144  134  143 1   
   145  144  145 1   
   146  144  153 1   
   147  145  146 1   
   148  145  148 1   
   149  145  154 1   
   150  146  147 2   
   151  146  159 1   
   152  148  149 1   
   153  148  155 1   
   154  148  156 1   
   155  149  150 1   
   156  149  157 1   
   157  149  158 1   
   158  150  151 1   
   159  150  152 1   
   160  159  160 1   
   161  159  168 1   
   162  160  161 1   
   163  160  163 1   
   164  160  169 1   
   165  161  162 2   
   166  161  174 1   
   167  163  164 1   
   168  163  170 1   
   169  163  171 1   
   170  164  165 1   
   171  164  172 1   
   172  164  173 1   
   173  165  166 1   
   174  165  167 1   
   175  174  175 1   
   176  174  179 1   
   177  175  176 1   
   178  175  177 1   
   179  175  178 1   
   180  181  182 1   
   181  181  183 1   
   182  184  185 1   
   183  184  186 1   
   184  187  188 1   
   185  187  189 1   
   186  190  191 1   
   187  190  192 1   
   188  193  194 1   
   189  193  195 1   
   190  196  197 1   
   191  196  198 1   
@<TRIPOS>SUBSTRUCTURE
     1 MOL         1 TEMP              0 ****  ****    0 ROOT
