@<TRIPOS>MOLECULE
MOL
  181   177     1     0     0
SMALL
resp


@<TRIPOS>ATOM
      1 C1          4.0440   -2.6410    3.4540 c3        1 MOL     -0.491325
      2 C2          5.2970   -1.7780    3.2120 c         1 MOL      0.587556
      3 O1          5.1980   -0.6550    2.5670 o         1 MOL     -0.590287
      4 H1          4.3150   -3.5150    4.0450 hc        1 MOL      0.142552
      5 H2          3.2980   -2.0560    3.9920 hc        1 MOL      0.142552
      6 H3          3.6340   -2.9630    2.4970 hc        1 MOL      0.142552
      7 N1          6.4850   -2.2200    3.5890 n         1 MOL     -0.325868
      8 C3          7.7580   -1.6000    3.2850 c3        1 MOL     -0.034178
      9 C4          8.0520   -1.9410    1.8760 c         1 MOL      0.636104
     10 O2          7.9540   -3.1280    1.5480 o         1 MOL     -0.547995
     11 C5          8.7320   -2.1160    4.3640 c3        1 MOL     -0.389108
     12 C6         10.2040   -1.6840    4.2710 c         1 MOL      0.787971
     13 O3         11.0460   -2.4310    3.8280 o         1 MOL     -0.751191
     14 O4         10.5400   -0.5450    4.7380 o         1 MOL     -0.751191
     15 H4          6.4940   -3.1170    4.0450 hn        1 MOL      0.250081
     16 H5          7.6040   -0.5230    3.3360 h1        1 MOL      0.062592
     17 H6          8.8830   -3.1970    4.2550 hc        1 MOL      0.088337
     18 H7          8.2830   -1.8890    5.3320 hc        1 MOL      0.088337
     19 N2          8.4260   -0.9600    1.0660 n         1 MOL     -0.439290
     20 C7          8.4650   -1.3050   -0.3300 c3        1 MOL      0.208889
     21 C8          7.2300   -1.7790   -1.0720 c         1 MOL      0.216635
     22 O5          7.4040   -2.5060   -2.0590 o         1 MOL     -0.504589
     23 C9          9.0720   -0.1270   -1.0790 c3        1 MOL     -0.191347
     24 H8          8.5560   -0.0120    1.3940 hn        1 MOL      0.275756
     25 H9          9.2970   -2.0140   -0.4170 h1        1 MOL      0.081837
     26 H10         9.5430   -0.3430   -2.0460 hc        1 MOL      0.047419
     27 H11         8.3560    0.6740   -1.2500 hc        1 MOL      0.047419
     28 H12         9.7840    0.3430   -0.3980 hc        1 MOL      0.047419
     29 N3          6.0420   -1.4540   -0.6320 n         1 MOL     -0.121174
     30 C10         4.7920   -1.6760   -1.3430 c3        1 MOL     -0.009005
     31 C11         4.8030   -1.0220   -2.7890 c         1 MOL      0.359530
     32 O6          4.0290   -1.4720   -3.5700 o         1 MOL     -0.394974
     33 C12         4.4400   -3.2380   -1.2760 c3        1 MOL      0.084043
     34 C13         3.0880   -3.5660   -1.9700 c         1 MOL      0.457814
     35 O7          2.8320   -4.5250   -2.7260 o         1 MOL     -0.675417
     36 O8          2.1640   -2.8650   -1.5580 o         1 MOL     -0.675417
     37 H13         5.9620   -0.9200    0.2290 hn        1 MOL      0.139006
     38 H14         4.0380   -1.1950   -0.7220 h1        1 MOL      0.078394
     39 H15         4.4850   -3.5800   -0.2490 hc        1 MOL      0.009429
     40 H16         5.2250   -3.7450   -1.8450 hc        1 MOL      0.009429
     41 N4          5.6050   -0.0180   -3.0800 n         1 MOL     -0.078930
     42 C14         5.6220    0.6520   -4.4100 c3        1 MOL     -0.287453
     43 C15         4.2470    1.2930   -4.7880 c         1 MOL      0.474802
     44 O9          3.9640    1.3920   -5.9920 o         1 MOL     -0.525738
     45 H17         6.2830    0.2600   -2.3890 hn        1 MOL      0.138066
     46 H18         5.7490   -0.0960   -5.1960 h1        1 MOL      0.132808
     47 H19         6.3700    1.4320   -4.5200 h1        1 MOL      0.132808
     48 N5          3.5120    1.7960   -3.7970 n         1 MOL     -0.285771
     49 C16         2.4200    2.8060   -3.9790 c3        1 MOL      0.008458
     50 C17         2.5790    3.8310   -2.8340 c         1 MOL      0.436814
     51 O10         2.8990    3.4410   -1.6950 o         1 MOL     -0.462406
     52 C18         1.0160    2.1730   -3.7880 c3        1 MOL     -0.138078
     53 C19        -0.1870    3.1150   -3.7890 c         1 MOL      0.553968
     54 N6         -0.5720    3.4700   -2.5760 n         1 MOL     -0.657379
     55 O11        -0.6700    3.5200   -4.8570 o         1 MOL     -0.578411
     56 H20         3.7730    1.5520   -2.8510 hn        1 MOL      0.175133
     57 H21         2.5130    3.2900   -4.9480 h1        1 MOL      0.068297
     58 H22         0.9690    1.7330   -2.7850 hc        1 MOL      0.092013
     59 H23         0.7890    1.2930   -4.3960 hc        1 MOL      0.092013
     60 H24        -0.1860    3.0370   -1.7510 hn        1 MOL      0.328029
     61 H25        -1.2330    4.2210   -2.4560 hn        1 MOL      0.328029
     62 N7          2.4480    5.1430   -3.1040 n         1 MOL     -0.370016
     63 C20         2.4260    6.3460   -2.1830 c3        1 MOL     -0.224825
     64 C21         1.0660    6.5090   -1.4120 c         1 MOL      0.638055
     65 O12        -0.0490    6.4360   -1.9300 o         1 MOL     -0.509418
     66 H26         2.1440    5.3640   -4.0500 hn        1 MOL      0.299316
     67 H27         2.5870    7.2780   -2.7310 h1        1 MOL      0.118481
     68 H28         3.2280    6.1810   -1.4620 h1        1 MOL      0.118481
     69 N8          1.1980    6.8880   -0.1300 n         1 MOL     -0.440401
     70 C22         0.0700    7.3240    0.7800 c3        1 MOL     -0.358042
     71 C23        -0.7170    6.2340    1.5110 c         1 MOL      0.573714
     72 O13        -1.7440    6.6220    2.0000 o         1 MOL     -0.568733
     73 C24         0.4020    8.4840    1.8320 c3        1 MOL      0.533838
     74 C25         1.1640    7.9950    3.0710 c3        1 MOL     -0.354779
     75 O14         1.1210    9.5020    1.1570 oh        1 MOL     -0.637679
     76 H29         2.1090    6.8840    0.2940 hn        1 MOL      0.287928
     77 H30        -0.5930    7.8490    0.1010 h1        1 MOL      0.173059
     78 H31        -0.5020    8.9360    2.2490 h1        1 MOL      0.034651
     79 H32         1.9720    9.1360    0.8920 ho        1 MOL      0.367885
     80 H33         1.9710    7.3430    2.7660 hc        1 MOL      0.078538
     81 H34         1.4680    8.9040    3.5940 hc        1 MOL      0.078538
     82 H35         0.4600    7.4990    3.7400 hc        1 MOL      0.078538
     83 N9         -0.2790    4.9670    1.5340 n         1 MOL     -0.133657
     84 C26        -1.0580    3.8230    1.9990 c3        1 MOL     -0.309010
     85 C27        -0.9440    2.6650    1.0690 c         1 MOL      0.587767
     86 O15        -0.0430    2.5610    0.2130 o         1 MOL     -0.465124
     87 C28        -0.5060    3.5020    3.4170 c3        1 MOL      0.204542
     88 C29         1.0130    3.1560    3.5370 c3        1 MOL     -0.001091
     89 C30        -0.8710    4.6400    4.4410 c3        1 MOL     -0.383694
     90 C31         1.4720    2.6770    4.9220 c3        1 MOL     -0.211687
     91 H36         0.5660    4.7970    1.0110 hn        1 MOL      0.159004
     92 H37        -2.0990    4.1280    2.0760 h1        1 MOL      0.158202
     93 H38        -1.0010    2.6000    3.7770 hc        1 MOL     -0.016763
     94 H39         1.6170    4.0190    3.2580 hc        1 MOL      0.038215
     95 H40         1.2670    2.3690    2.8190 hc        1 MOL      0.038215
     96 H41        -1.8570    5.0300    4.1830 hc        1 MOL      0.096284
     97 H42        -0.7900    4.1670    5.4230 hc        1 MOL      0.096284
     98 H43        -0.1330    5.4320    4.3710 hc        1 MOL      0.096284
     99 H44         2.5190    2.3730    5.0290 hc        1 MOL      0.059503
    100 H45         1.2250    3.4260    5.6780 hc        1 MOL      0.059503
    101 H46         0.8550    1.7850    5.0580 hc        1 MOL      0.059503
    102 N10        -1.9000    1.6900    1.1310 n         1 MOL     -0.588219
    103 C32        -2.1050    0.5000    0.3170 c3        1 MOL      0.147371
    104 C33        -3.5810    0.1930   -0.0360 c         1 MOL      0.636474
    105 O16        -3.8840   -0.9340   -0.3270 o         1 MOL     -0.595665
    106 C34        -1.4630   -0.7110    0.9780 c3        1 MOL      0.002255
    107 C35        -1.0570   -1.7930    0.0190 c         1 MOL      0.747447
    108 O17        -0.7880   -1.4920   -1.1910 o         1 MOL     -0.796157
    109 O18        -0.9010   -2.9570    0.3900 o         1 MOL     -0.796157
    110 H47        -2.5790    1.8800    1.8540 hn        1 MOL      0.288106
    111 H48        -1.5840    0.6490   -0.6340 h1        1 MOL      0.031260
    112 H49        -2.0770   -1.0620    1.8170 hc        1 MOL      0.027374
    113 H50        -0.5550   -0.2930    1.4020 hc        1 MOL      0.027374
    114 N11        -4.5380    1.0910    0.1500 n         1 MOL     -0.671642
    115 C36        -5.9560    0.8160   -0.0600 c3        1 MOL      0.466939
    116 C37        -6.5690   -0.3610    0.7200 c         1 MOL      0.646583
    117 O19        -6.5080   -0.3420    1.9160 o         1 MOL     -0.622473
    118 C38        -6.7460    2.0980    0.1940 c3        1 MOL     -0.354226
    119 C39        -8.1590    2.0310   -0.4250 ca        1 MOL      0.113185
    120 C40        -8.4500    2.7020   -1.6010 ca        1 MOL     -0.147660
    121 C41        -9.1970    1.2640    0.2330 ca        1 MOL     -0.147660
    122 C42        -9.7300    2.6450   -2.1960 ca        1 MOL     -0.113077
    123 C43       -10.4780    1.1990   -0.3160 ca        1 MOL     -0.113077
    124 C44       -10.6970    1.8300   -1.5780 ca        1 MOL     -0.141740
    125 H51        -4.2750    1.9260    0.6530 hn        1 MOL      0.275753
    126 H52        -6.0700    0.6600   -1.1340 h1        1 MOL     -0.027385
    127 H53        -6.1170    2.8840   -0.2280 hc        1 MOL      0.106195
    128 H54        -6.8230    2.1430    1.2830 hc        1 MOL      0.106195
    129 H55        -7.5950    3.2320   -2.0000 ha        1 MOL      0.108560
    130 H56        -8.9250    0.6440    1.0700 ha        1 MOL      0.108560
    131 H57        -9.8470    3.1170   -3.1510 ha        1 MOL      0.120346
    132 H58       -11.1960    0.5420    0.1690 ha        1 MOL      0.120346
    133 H59       -11.6840    1.8390   -2.0080 ha        1 MOL      0.106265
    134 N12        -7.1060   -1.4490    0.1120 n         1 MOL     -0.255697
    135 C45        -7.9040   -2.5010    0.8130 c3        1 MOL      0.018444
    136 C46        -7.0700   -3.2540    1.9160 c         1 MOL      0.222726
    137 O20        -7.7130   -3.9290    2.7350 o         1 MOL     -0.498073
    138 C47        -8.4550   -3.4260   -0.2920 c3        1 MOL      0.086466
    139 C48        -8.5570   -2.5260   -1.5210 c3        1 MOL     -0.102652
    140 C49        -7.4080   -1.5660   -1.3220 c3        1 MOL     -0.047983
    141 H60        -8.7670   -2.0040    1.2730 h1        1 MOL      0.079554
    142 H61        -7.7410   -4.2190   -0.5070 hc        1 MOL      0.022502
    143 H62        -9.3900   -3.9270   -0.0040 hc        1 MOL      0.022502
    144 H63        -8.4820   -3.2010   -2.3700 hc        1 MOL      0.034145
    145 H64        -9.5360   -2.0490   -1.4610 hc        1 MOL      0.034145
    146 H65        -6.5580   -1.9580   -1.8830 h1        1 MOL      0.054827
    147 H66        -7.5440   -0.6180   -1.8240 h1        1 MOL      0.054827
    148 N13        -5.7200   -3.1870    1.8800 n         1 MOL      0.088772
    149 C50        -4.7430   -3.9680    2.6960 c3        1 MOL     -0.459017
    150 C51        -4.2940   -3.3060    4.0590 c         1 MOL      0.465058
    151 O21        -3.5660   -3.9000    4.8870 o         1 MOL     -0.504554
    152 C52        -3.4630   -4.2900    1.8640 c3        1 MOL      0.306489
    153 C53        -3.6490   -5.3770    0.7170 c3        1 MOL     -0.169369
    154 C54        -2.4590   -5.5950   -0.1310 c         1 MOL      0.740361
    155 O22        -2.2270   -4.8750   -1.1460 o         1 MOL     -0.737896
    156 O23        -1.6130   -6.4480    0.2340 o         1 MOL     -0.737896
    157 H67        -5.2800   -2.5350    1.2370 hn        1 MOL      0.094836
    158 H68        -5.1490   -4.9650    2.8790 h1        1 MOL      0.179345
    159 H69        -2.7080   -4.6900    2.5430 hc        1 MOL      0.018075
    160 H70        -3.0810   -3.3470    1.4550 hc        1 MOL      0.018075
    161 H71        -4.5600   -5.1810    0.1530 hc        1 MOL     -0.000577
    162 H72        -3.8340   -6.2900    1.2860 hc        1 MOL     -0.000577
    163 N14        -4.5630   -1.9550    4.0890 n         1 MOL     -0.196625
    164 C55        -4.2640   -0.9970    5.1510 c3        1 MOL     -0.353375
    165 H73        -4.8230   -0.0770    4.9770 h1        1 MOL      0.127626
    166 H74        -4.5510   -1.4190    6.1130 h1        1 MOL      0.127626
    167 H75        -3.1970   -0.7770    5.1530 h1        1 MOL      0.127626
    168 H76        -4.9180   -1.5830    3.2140 hn        1 MOL      0.254806
    169 Ca1        -0.1980   -3.8140   -2.2720 Ca        1 MOL      1.802202
    170 O24         0.6170   -5.8550   -0.8320 oh        1 MOL     -0.837839
    171 H77         1.3800   -6.2480   -0.4090 ho        1 MOL      0.408423
    172 H78        -0.1090   -6.0550   -0.2370 ho        1 MOL      0.408423
    173 O25         0.1720   -6.0900   -3.7410 oh        1 MOL     -0.837839
    174 O26        -0.0000   -3.4720   -5.0140 oh        1 MOL     -0.837839
    175 H79        -0.3220   -6.8930   -3.5750 ho        1 MOL      0.408423
    176 H80        -0.3620   -2.8450   -5.6380 ho        1 MOL      0.408423
    177 H81         1.0250   -6.3890   -4.0650 ho        1 MOL      0.408423
    178 H82         0.2610   -4.2190   -5.5600 ho        1 MOL      0.408423
    179 O27        -2.4740   -3.2200   -3.4530 oh        1 MOL     -0.837839
    180 H83        -3.3330   -3.3680   -3.0430 ho        1 MOL      0.408423
    181 H84        -2.6510   -2.5860   -4.1490 ho        1 MOL      0.408423
@<TRIPOS>BOND
     1    1    2 1   
     2    1    4 1   
     3    1    5 1   
     4    1    6 1   
     5    2    3 2   
     6    2    7 1   
     7    7    8 1   
     8    7   15 1   
     9    8    9 1   
    10    8   11 1   
    11    8   16 1   
    12    9   10 2   
    13    9   19 1   
    14   11   12 1   
    15   11   17 1   
    16   11   18 1   
    17   12   13 1   
    18   12   14 1   
    19   19   20 1   
    20   19   24 1   
    21   20   21 1   
    22   20   23 1   
    23   20   25 1   
    24   21   22 2   
    25   21   29 1   
    26   23   26 1   
    27   23   27 1   
    28   23   28 1   
    29   29   30 1   
    30   29   37 1   
    31   30   31 1   
    32   30   33 1   
    33   30   38 1   
    34   31   32 2   
    35   31   41 1   
    36   33   34 1   
    37   33   39 1   
    38   33   40 1   
    39   34   35 1   
    40   34   36 1   
    41   41   42 1   
    42   41   45 1   
    43   42   43 1   
    44   42   46 1   
    45   42   47 1   
    46   43   44 2   
    47   43   48 1   
    48   48   49 1   
    49   48   56 1   
    50   49   50 1   
    51   49   52 1   
    52   49   57 1   
    53   50   51 2   
    54   50   62 1   
    55   52   53 1   
    56   52   58 1   
    57   52   59 1   
    58   53   54 1   
    59   53   55 2   
    60   54   60 1   
    61   54   61 1   
    62   62   63 1   
    63   62   66 1   
    64   63   64 1   
    65   63   67 1   
    66   63   68 1   
    67   64   65 2   
    68   64   69 1   
    69   69   70 1   
    70   69   76 1   
    71   70   71 1   
    72   70   73 1   
    73   70   77 1   
    74   71   72 2   
    75   71   83 1   
    76   73   74 1   
    77   73   75 1   
    78   73   78 1   
    79   74   80 1   
    80   74   81 1   
    81   74   82 1   
    82   75   79 1   
    83   83   84 1   
    84   83   91 1   
    85   84   85 1   
    86   84   87 1   
    87   84   92 1   
    88   85   86 2   
    89   85  102 1   
    90   87   88 1   
    91   87   89 1   
    92   87   93 1   
    93   88   90 1   
    94   88   94 1   
    95   88   95 1   
    96   89   96 1   
    97   89   97 1   
    98   89   98 1   
    99   90   99 1   
   100   90  100 1   
   101   90  101 1   
   102  102  103 1   
   103  102  110 1   
   104  103  104 1   
   105  103  106 1   
   106  103  111 1   
   107  104  105 2   
   108  104  114 1   
   109  106  107 1   
   110  106  112 1   
   111  106  113 1   
   112  107  108 1   
   113  107  109 1   
   114  114  115 1   
   115  114  125 1   
   116  115  116 1   
   117  115  118 1   
   118  115  126 1   
   119  116  117 2   
   120  116  134 1   
   121  118  119 1   
   122  118  127 1   
   123  118  128 1   
   124  119  120 ar  
   125  119  121 ar  
   126  120  122 ar  
   127  120  129 1   
   128  121  123 ar  
   129  121  130 1   
   130  122  124 ar  
   131  122  131 1   
   132  123  124 ar  
   133  123  132 1   
   134  124  133 1   
   135  134  135 1   
   136  134  140 1   
   137  135  136 1   
   138  135  138 1   
   139  135  141 1   
   140  136  137 2   
   141  136  148 1   
   142  138  139 1   
   143  138  142 1   
   144  138  143 1   
   145  139  140 1   
   146  139  144 1   
   147  139  145 1   
   148  140  146 1   
   149  140  147 1   
   150  148  149 1   
   151  148  157 1   
   152  149  150 1   
   153  149  152 1   
   154  149  158 1   
   155  150  151 2   
   156  150  163 1   
   157  152  153 1   
   158  152  159 1   
   159  152  160 1   
   160  153  154 1   
   161  153  161 1   
   162  153  162 1   
   163  154  155 1   
   164  154  156 1   
   165  163  164 1   
   166  163  168 1   
   167  164  165 1   
   168  164  166 1   
   169  164  167 1   
   170  170  171 1   
   171  170  172 1   
   172  173  175 1   
   173  173  177 1   
   174  174  176 1   
   175  174  178 1   
   176  179  180 1   
   177  179  181 1   
@<TRIPOS>SUBSTRUCTURE
     1 MOL         1 TEMP              0 ****  ****    0 ROOT
