@<TRIPOS>MOLECULE
MOL
  192   187     1     0     0
SMALL
resp


@<TRIPOS>ATOM
      1 C1         -2.9240    7.5980    0.9510 c3        1 MOL     -0.328347
      2 C2         -2.8830    6.0520    0.8800 c         1 MOL      0.673519
      3 O1         -2.5390    5.4820    1.9150 o         1 MOL     -0.598341
      4 H1         -3.0500    7.9100    1.9880 hc        1 MOL      0.084840
      5 H2         -1.9910    8.0040    0.5600 hc        1 MOL      0.084840
      6 H3         -3.7600    7.9680    0.3560 hc        1 MOL      0.084840
      7 N1         -3.2190    5.3860   -0.1890 n         1 MOL     -0.497087
      8 C3         -3.4560    3.9740   -0.3000 c3        1 MOL      0.195587
      9 C4         -2.1720    3.1840   -0.4560 c         1 MOL      0.289003
     10 O2         -2.1340    1.9840   -0.0660 o         1 MOL     -0.532504
     11 C5         -4.4560    3.5270   -1.3840 c3        1 MOL     -0.250527
     12 C6         -4.4140    4.1310   -2.7990 c         1 MOL      0.666268
     13 O3         -4.2810    5.3840   -2.8280 o         1 MOL     -0.706162
     14 O4         -4.2600    3.4230   -3.7960 o         1 MOL     -0.706162
     15 H4         -3.6000    5.9600   -0.9240 hn        1 MOL      0.299351
     16 H5         -3.7710    3.5510    0.6530 h1        1 MOL      0.076464
     17 H6         -5.4210    3.7730   -0.9420 hc        1 MOL      0.059041
     18 H7         -4.4590    2.4410   -1.5180 hc        1 MOL      0.059041
     19 N2         -1.1360    3.8280   -0.8980 n         1 MOL     -0.088858
     20 C7          0.2210    3.2210   -1.0190 c3        1 MOL      0.205376
     21 C8          1.1020    3.3100    0.2070 c         1 MOL      0.343308
     22 O5          0.9780    4.3550    0.8360 o         1 MOL     -0.560193
     23 C9          0.9130    3.9470   -2.2200 c3        1 MOL      0.069662
     24 C10         0.4350    3.2610   -3.5220 c3        1 MOL     -0.075959
     25 C11        -0.9130    3.5940   -3.9900 c3        1 MOL      0.007166
     26 C12        -1.2180    3.0630   -5.4080 c3        1 MOL     -0.027085
     27 N3         -2.4740    3.7170   -5.8560 n4        1 MOL     -0.259795
     28 H8         -1.2720    4.8240   -1.0400 hn        1 MOL      0.146104
     29 H9          0.2450    2.1530   -1.2580 h1        1 MOL      0.004117
     30 H10         2.0020    3.9480   -2.1390 hc        1 MOL     -0.006571
     31 H11         0.5810    4.9820   -2.2470 hc        1 MOL     -0.006571
     32 H12         0.6940    2.2000   -3.4110 hc        1 MOL      0.018066
     33 H13         1.1070    3.5780   -4.3130 hc        1 MOL      0.018066
     34 H14        -0.9520    4.6820   -3.9220 hc        1 MOL      0.036593
     35 H15        -1.6330    3.2400   -3.2550 hc        1 MOL      0.036593
     36 H16        -1.4170    1.9950   -5.4660 hx        1 MOL      0.088992
     37 H17        -0.3180    3.1360   -6.0160 hx        1 MOL      0.088992
     38 H18        -3.3270    3.3390   -5.4680 hn        1 MOL      0.280426
     39 H19        -2.5250    4.6760   -5.5710 hn        1 MOL      0.280426
     40 H20        -2.6740    3.6380   -6.8400 hn        1 MOL      0.280426
     41 N4          1.9650    2.4070    0.5730 n         1 MOL     -0.182491
     42 C13         2.1780    1.0510    0.2280 c3        1 MOL      0.059338
     43 C14         2.5010    0.8340   -1.2740 c         1 MOL      0.272334
     44 O6          1.7980    0.0970   -1.9540 o         1 MOL     -0.494969
     45 C15         1.1290    0.1340    0.8120 c3        1 MOL     -0.030900
     46 C16         1.1950    0.0940    2.3410 c         1 MOL      0.721024
     47 O7          0.4520   -0.7680    2.9180 o         1 MOL     -0.782341
     48 O8          1.8880    0.8290    3.0580 o         1 MOL     -0.782341
     49 H21         2.4640    2.6750    1.4230 hn        1 MOL      0.213552
     50 H22         3.0860    0.6880    0.7150 h1        1 MOL      0.059709
     51 H23         1.3080   -0.8850    0.4660 hc        1 MOL      0.042248
     52 H24         0.1690    0.5420    0.4920 hc        1 MOL      0.042248
     53 N5          3.6190    1.4110   -1.7960 n         1 MOL     -0.286507
     54 C17         4.6970    2.1320   -1.1030 c3        1 MOL      0.048157
     55 C18         5.7290    2.7670   -2.0140 c         1 MOL      0.522120
     56 O9          5.4600    3.0620   -3.2180 o         1 MOL     -0.568747
     57 H25         3.7440    1.3850   -2.8020 hn        1 MOL      0.265770
     58 H26         5.1980    1.4270   -0.4360 h1        1 MOL      0.004916
     59 H27         4.2630    2.8660   -0.4220 h1        1 MOL      0.004916
     60 N6          6.9650    3.0620   -1.5520 n         1 MOL     -0.408413
     61 C19         7.4550    2.7210   -0.1720 c3        1 MOL     -0.055154
     62 C20         7.8780    1.2210   -0.0650 c         1 MOL      0.649344
     63 O10         8.0230    0.5860   -1.1050 o         1 MOL     -0.478698
     64 C21         8.4950    3.7160    0.3070 c3        1 MOL     -0.240627
     65 C22         9.6510    3.8210   -0.7160 c         1 MOL      0.806395
     66 O11         9.5380    4.6740   -1.6110 o         1 MOL     -0.725521
     67 O12        10.6530    3.1660   -0.5090 o         1 MOL     -0.725521
     68 H28         7.5750    3.4870   -2.2380 hn        1 MOL      0.302500
     69 H29         6.6330    2.8760    0.5380 h1        1 MOL      0.050628
     70 H30         8.9070    3.4350    1.2870 hc        1 MOL      0.035766
     71 H31         8.0080    4.6850    0.4660 hc        1 MOL      0.035766
     72 N7          7.9730    0.6610    1.1570 n         1 MOL     -0.509469
     73 C23         8.3750   -0.7760    1.4390 c3        1 MOL     -0.060076
     74 C24         7.3200   -1.8810    1.1220 c         1 MOL      0.462854
     75 O13         7.6830   -2.9780    0.6010 o         1 MOL     -0.518079
     76 H32         7.7580    1.1910    2.0000 hn        1 MOL      0.285344
     77 H33         8.6950   -0.9060    2.4750 h1        1 MOL      0.108052
     78 H34         9.2270   -1.0960    0.8340 h1        1 MOL      0.108052
     79 N8          6.0470   -1.5480    1.4160 n         1 MOL     -0.496723
     80 C25         4.8540   -2.4740    1.1380 c3        1 MOL      0.114870
     81 C26         4.4320   -2.3540   -0.3580 c         1 MOL      0.646382
     82 O14         4.5250   -1.2880   -0.9710 o         1 MOL     -0.456439
     83 C27         3.6780   -2.2550    2.0970 c3        1 MOL      0.200427
     84 C28         3.8680   -2.8600    3.5130 c3        1 MOL     -0.297648
     85 O15         2.4390   -2.7510    1.7200 oh        1 MOL     -0.462313
     86 H35         5.8390   -0.6340    1.7910 hn        1 MOL      0.270774
     87 H36         5.1600   -3.5150    1.2480 h1        1 MOL      0.072464
     88 H37         3.4940   -1.1880    2.1750 h1        1 MOL      0.008990
     89 H38         1.8330   -2.4190    2.3790 ho        1 MOL      0.319174
     90 H39         4.8370   -2.8820    4.0160 hc        1 MOL      0.076511
     91 H40         3.0900   -2.3430    4.0910 hc        1 MOL      0.076511
     92 H41         3.5250   -3.8900    3.4660 hc        1 MOL      0.076511
     93 N9          3.9500   -3.4440   -0.9600 n         1 MOL     -0.571861
     94 C29         3.2000   -3.3870   -2.2520 c3        1 MOL     -0.294739
     95 C30         1.8250   -4.0080   -1.9430 c         1 MOL      0.729464
     96 O16         1.1100   -4.4450   -2.8400 o         1 MOL     -0.600930
     97 C31         4.0020   -4.0000   -3.4240 c3        1 MOL      0.329684
     98 C32         4.3820   -5.4850   -3.2030 c3        1 MOL     -0.017989
     99 C33         5.2970   -3.2760   -3.6750 c3        1 MOL     -0.535285
    100 C34         4.8100   -6.2670   -4.4490 c3        1 MOL     -0.125650
    101 H42         4.1910   -4.3090   -0.4820 hn        1 MOL      0.252314
    102 H43         3.0700   -2.3340   -2.4840 h1        1 MOL      0.202919
    103 H44         3.4010   -3.9530   -4.3370 hc        1 MOL     -0.013265
    104 H45         3.4600   -5.9770   -2.8960 hc        1 MOL      0.031202
    105 H46         5.1900   -5.5700   -2.4670 hc        1 MOL      0.031202
    106 H47         6.0070   -3.3780   -2.8500 hc        1 MOL      0.146751
    107 H48         5.8840   -3.7500   -4.4620 hc        1 MOL      0.146751
    108 H49         5.1210   -2.2320   -3.9280 hc        1 MOL      0.146751
    109 H50         5.7170   -5.9070   -4.9290 hc        1 MOL      0.024243
    110 H51         4.9760   -7.3130   -4.1600 hc        1 MOL      0.024243
    111 H52         4.0140   -6.3040   -5.1870 hc        1 MOL      0.024243
    112 N10         1.3390   -4.0750   -0.6770 n         1 MOL     -0.549895
    113 C35         0.0470   -4.6840   -0.2730 c3        1 MOL     -0.111862
    114 C36        -1.0150   -3.6680   -0.6740 c         1 MOL      0.689654
    115 O17        -0.8320   -2.4350   -0.5110 o         1 MOL     -0.575044
    116 C37        -0.0530   -4.8710    1.3020 c3        1 MOL      0.380769
    117 C38         1.0660   -5.7410    1.9040 c3        1 MOL     -0.278198
    118 O18        -1.2520   -5.3610    1.6080 oh        1 MOL     -0.615273
    119 H53         1.7090   -3.4410    0.0160 hn        1 MOL      0.403790
    120 H54        -0.0660   -5.6750   -0.7150 h1        1 MOL      0.129119
    121 H55         0.0080   -3.8550    1.6950 h1        1 MOL      0.011582
    122 H56        -1.2240   -5.3580    2.5700 ho        1 MOL      0.405768
    123 H57         2.0510   -5.3360    1.6680 hc        1 MOL      0.052697
    124 H58         1.0180   -5.7530    2.9950 hc        1 MOL      0.052697
    125 H59         1.0210   -6.7540    1.5050 hc        1 MOL      0.052697
    126 N11        -2.1910   -4.1640   -1.0820 n         1 MOL     -0.639580
    127 C39        -3.4330   -3.5160   -1.5320 c3        1 MOL      0.429797
    128 C40        -4.6050   -3.6670   -0.5400 c         1 MOL      0.364047
    129 O19        -4.6110   -4.5340    0.2810 o         1 MOL     -0.514127
    130 C41        -3.7660   -3.9640   -2.9430 c3        1 MOL      0.183547
    131 C42        -2.7640   -3.5240   -4.0200 c3        1 MOL     -0.332937
    132 O20        -5.0190   -3.4730   -3.2760 oh        1 MOL     -0.674542
    133 H60        -2.1650   -5.1740   -1.0080 hn        1 MOL      0.277017
    134 H61        -3.2320   -2.4430   -1.5980 h1        1 MOL      0.014076
    135 H62        -3.7900   -5.0560   -2.9230 h1        1 MOL      0.008116
    136 H63        -5.2470   -3.8030   -4.1540 ho        1 MOL      0.417132
    137 H64        -2.8080   -2.4430   -3.9240 hc        1 MOL      0.099606
    138 H65        -1.7870   -3.9560   -3.8490 hc        1 MOL      0.099606
    139 H66        -3.1050   -3.7910   -5.0220 hc        1 MOL      0.099606
    140 N12        -5.5430   -2.7490   -0.5410 n         1 MOL     -0.147124
    141 C43        -6.7840   -2.6940    0.2920 c3        1 MOL      0.021749
    142 C44        -6.9010   -1.5700    1.3440 c         1 MOL      0.470217
    143 O21        -7.9490   -1.2470    1.8860 o         1 MOL     -0.521733
    144 C45        -7.9060   -2.6790   -0.7410 c3        1 MOL     -0.101033
    145 C46        -8.1170   -1.2850   -1.3290 c3        1 MOL      0.018869
    146 C47        -8.5830   -1.4840   -2.7890 c3        1 MOL     -0.048509
    147 C48        -8.7710   -0.2430   -3.6350 c3        1 MOL      0.103962
    148 N13        -9.7060   -0.4400   -4.8290 n4        1 MOL     -0.328605
    149 H67        -5.3780   -1.9540   -1.1390 hn        1 MOL      0.201308
    150 H68        -6.8460   -3.6210    0.8520 h1        1 MOL      0.102446
    151 H69        -8.8270   -3.0410   -0.2950 hc        1 MOL      0.036409
    152 H70        -7.5300   -3.2810   -1.5620 hc        1 MOL      0.036409
    153 H71        -7.1720   -0.7740   -1.1610 hc        1 MOL      0.027281
    154 H72        -8.9240   -0.6960   -0.9000 hc        1 MOL      0.027281
    155 H73        -9.5260   -2.0410   -2.8420 hc        1 MOL      0.018247
    156 H74        -7.8620   -2.1180   -3.2900 hc        1 MOL      0.018247
    157 H75        -7.8450    0.2650   -3.9100 hx        1 MOL      0.072615
    158 H76        -9.3040    0.4860   -3.0220 hx        1 MOL      0.072615
    159 H77        -9.8220    0.4160   -5.3620 hn        1 MOL      0.313781
    160 H78        -9.3540   -1.1160   -5.4900 hn        1 MOL      0.313781
    161 H79       -10.6270   -0.8090   -4.6210 hn        1 MOL      0.313781
    162 N14        -5.7140   -1.0470    1.6320 n         1 MOL     -0.293244
    163 C49        -5.5510   -0.0970    2.7400 c3        1 MOL     -0.135980
    164 C50        -6.0270    1.3020    2.3870 c         1 MOL      0.518568
    165 O22        -5.5700    1.9910    1.4670 o         1 MOL     -0.519107
    166 C51        -4.1080   -0.1230    3.2240 c3        1 MOL      0.216598
    167 C52        -4.0670    0.2250    4.6970 c3        1 MOL     -0.221797
    168 C53        -2.5980    0.2080    5.2570 c         1 MOL      0.795822
    169 O23        -1.9180   -0.8640    5.2830 o         1 MOL     -0.818774
    170 O24        -2.0510    1.2470    5.6880 o         1 MOL     -0.818774
    171 H80        -4.8830   -1.3840    1.1620 hn        1 MOL      0.162733
    172 H81        -6.1080   -0.4990    3.5910 h1        1 MOL      0.049515
    173 H82        -3.5090    0.5350    2.5970 hc        1 MOL      0.028019
    174 H83        -3.7480   -1.1440    3.2030 hc        1 MOL      0.028019
    175 H84        -4.5020   -0.6900    5.0840 hc        1 MOL      0.051040
    176 H85        -4.6310    1.1290    4.9100 hc        1 MOL      0.051040
    177 N15        -7.1100    1.6810    3.1270 n         1 MOL     -0.278728
    178 C54        -7.7530    2.9520    3.0780 c3        1 MOL     -0.117995
    179 H86        -7.7170    3.4140    4.0640 h1        1 MOL      0.076752
    180 H87        -7.2410    3.5910    2.3590 h1        1 MOL      0.076752
    181 H88        -8.7920    2.8220    2.7760 h1        1 MOL      0.076752
    182 H89        -7.5760    0.9280    3.6260 hn        1 MOL      0.240671
    183 Ca1         0.3500    0.4470    5.2290 Ca        1 MOL      1.784550
    184 O25        -1.2370    2.0230    2.8160 oh        1 MOL     -0.888376
    185 H90        -1.4260    2.8750    3.2180 ho        1 MOL      0.441196
    186 H91        -1.8370    1.9740    2.0790 ho        1 MOL      0.441196
    187 O26         0.5980   -2.1200    6.0110 oh        1 MOL     -0.888376
    188 H92        -0.2410   -2.4840    6.2760 ho        1 MOL      0.441196
    189 H93         1.2140   -2.8530    6.0870 ho        1 MOL      0.441196
    190 O27         3.1090    0.6640    5.9200 oh        1 MOL     -0.888376
    191 H94         3.2950    1.5970    5.8220 ho        1 MOL      0.441196
    192 H95         3.8810    0.2220    5.5710 ho        1 MOL      0.441196
@<TRIPOS>BOND
     1    1    2 1   
     2    1    4 1   
     3    1    5 1   
     4    1    6 1   
     5    2    3 2   
     6    2    7 1   
     7    7    8 1   
     8    7   15 1   
     9    8    9 1   
    10    8   11 1   
    11    8   16 1   
    12    9   10 2   
    13    9   19 1   
    14   11   12 1   
    15   11   17 1   
    16   11   18 1   
    17   12   13 1   
    18   12   14 1   
    19   19   20 1   
    20   19   28 1   
    21   20   21 1   
    22   20   23 1   
    23   20   29 1   
    24   21   22 2   
    25   21   41 1   
    26   23   24 1   
    27   23   30 1   
    28   23   31 1   
    29   24   25 1   
    30   24   32 1   
    31   24   33 1   
    32   25   26 1   
    33   25   34 1   
    34   25   35 1   
    35   26   27 1   
    36   26   36 1   
    37   26   37 1   
    38   27   38 1   
    39   27   39 1   
    40   27   40 1   
    41   41   42 1   
    42   41   49 1   
    43   42   43 1   
    44   42   45 1   
    45   42   50 1   
    46   43   44 2   
    47   43   53 1   
    48   45   46 1   
    49   45   51 1   
    50   45   52 1   
    51   46   47 1   
    52   46   48 1   
    53   53   54 1   
    54   53   57 1   
    55   54   55 1   
    56   54   58 1   
    57   54   59 1   
    58   55   56 2   
    59   55   60 1   
    60   60   61 1   
    61   60   68 1   
    62   61   62 1   
    63   61   64 1   
    64   61   69 1   
    65   62   63 2   
    66   62   72 1   
    67   64   65 1   
    68   64   70 1   
    69   64   71 1   
    70   65   66 1   
    71   65   67 1   
    72   72   73 1   
    73   72   76 1   
    74   73   74 1   
    75   73   77 1   
    76   73   78 1   
    77   74   75 2   
    78   74   79 1   
    79   79   80 1   
    80   79   86 1   
    81   80   81 1   
    82   80   83 1   
    83   80   87 1   
    84   81   82 2   
    85   81   93 1   
    86   83   84 1   
    87   83   85 1   
    88   83   88 1   
    89   84   90 1   
    90   84   91 1   
    91   84   92 1   
    92   85   89 1   
    93   93   94 1   
    94   93  101 1   
    95   94   95 1   
    96   94   97 1   
    97   94  102 1   
    98   95   96 2   
    99   95  112 1   
   100   97   98 1   
   101   97   99 1   
   102   97  103 1   
   103   98  100 1   
   104   98  104 1   
   105   98  105 1   
   106   99  106 1   
   107   99  107 1   
   108   99  108 1   
   109  100  109 1   
   110  100  110 1   
   111  100  111 1   
   112  112  113 1   
   113  112  119 1   
   114  113  114 1   
   115  113  116 1   
   116  113  120 1   
   117  114  115 2   
   118  114  126 1   
   119  116  117 1   
   120  116  118 1   
   121  116  121 1   
   122  117  123 1   
   123  117  124 1   
   124  117  125 1   
   125  118  122 1   
   126  126  127 1   
   127  126  133 1   
   128  127  128 1   
   129  127  130 1   
   130  127  134 1   
   131  128  129 2   
   132  128  140 1   
   133  130  131 1   
   134  130  132 1   
   135  130  135 1   
   136  131  137 1   
   137  131  138 1   
   138  131  139 1   
   139  132  136 1   
   140  140  141 1   
   141  140  149 1   
   142  141  142 1   
   143  141  144 1   
   144  141  150 1   
   145  142  143 2   
   146  142  162 1   
   147  144  145 1   
   148  144  151 1   
   149  144  152 1   
   150  145  146 1   
   151  145  153 1   
   152  145  154 1   
   153  146  147 1   
   154  146  155 1   
   155  146  156 1   
   156  147  148 1   
   157  147  157 1   
   158  147  158 1   
   159  148  159 1   
   160  148  160 1   
   161  148  161 1   
   162  162  163 1   
   163  162  171 1   
   164  163  164 1   
   165  163  166 1   
   166  163  172 1   
   167  164  165 2   
   168  164  177 1   
   169  166  167 1   
   170  166  173 1   
   171  166  174 1   
   172  167  168 1   
   173  167  175 1   
   174  167  176 1   
   175  168  169 1   
   176  168  170 1   
   177  177  178 1   
   178  177  182 1   
   179  178  179 1   
   180  178  180 1   
   181  178  181 1   
   182  184  185 1   
   183  184  186 1   
   184  187  188 1   
   185  187  189 1   
   186  190  191 1   
   187  190  192 1   
@<TRIPOS>SUBSTRUCTURE
     1 MOL         1 TEMP              0 ****  ****    0 ROOT
