@<TRIPOS>MOLECULE
MOL
  184   179     1     0     0
SMALL
resp


@<TRIPOS>ATOM
      1 C1          5.7140   -6.6640    4.1480 c3        1 MOL     -0.380647
      2 C2          5.5800   -5.1660    3.8720 c         1 MOL      0.831762
      3 O1          4.8700   -4.4880    4.5520 o         1 MOL     -0.612935
      4 H1          5.4780   -7.2220    3.2410 hc        1 MOL      0.090652
      5 H2          6.7340   -6.8870    4.4560 hc        1 MOL      0.090652
      6 H3          5.0230   -6.9510    4.9410 hc        1 MOL      0.090652
      7 N1          6.1000   -4.5610    2.8290 n         1 MOL     -0.748536
      8 C3          7.1120   -4.9610    1.8580 c3        1 MOL      0.392508
      9 C4          6.7150   -4.9920    0.3950 c         1 MOL      0.421562
     10 O2          5.6770   -4.4860    0.0090 o         1 MOL     -0.419984
     11 C5          8.3550   -4.1280    2.1360 c3        1 MOL     -0.484934
     12 C6          8.0870   -2.7150    1.7420 c         1 MOL      0.991282
     13 O3          7.9380   -1.8580    2.6440 o         1 MOL     -0.779627
     14 O4          8.0040   -2.2860    0.5640 o         1 MOL     -0.779627
     15 H4          5.7940   -3.6010    2.7580 hn        1 MOL      0.357689
     16 H5          7.4260   -5.9750    2.1450 h1        1 MOL      0.000751
     17 H6          9.1110   -4.5610    1.4780 hc        1 MOL      0.085712
     18 H7          8.4680   -4.1910    3.2130 hc        1 MOL      0.085712
     19 N2          7.6040   -5.5070   -0.4360 n         1 MOL     -0.652108
     20 C7          7.4660   -5.7620   -1.8840 c3        1 MOL      0.256478
     21 C8          6.8380   -4.6370   -2.7150 c         1 MOL      0.472778
     22 O5          6.3790   -4.9590   -3.7470 o         1 MOL     -0.532187
     23 C9          6.6820   -7.0830   -1.9660 c3        1 MOL     -0.199003
     24 H8          8.5090   -5.5780    0.0120 hn        1 MOL      0.315997
     25 H9          8.4320   -5.9660   -2.3300 h1        1 MOL      0.041116
     26 H10         5.7090   -7.1590   -1.4900 hc        1 MOL      0.059625
     27 H11         6.6970   -7.3360   -3.0260 hc        1 MOL      0.059625
     28 H12         7.2230   -7.9580   -1.5960 hc        1 MOL      0.059625
     29 N3          6.9250   -3.3590   -2.3900 n         1 MOL     -0.217095
     30 C10         6.6470   -2.2000   -3.2290 c3        1 MOL     -0.140209
     31 C11         7.3450   -0.9270   -2.7760 c         1 MOL      0.436484
     32 O6          7.9830   -0.7790   -1.7630 o         1 MOL     -0.449546
     33 C12         5.0780   -1.8920   -3.2020 c3        1 MOL      0.002254
     34 C13         4.5530   -1.7610   -1.7410 c         1 MOL      0.627568
     35 O7          4.9120   -0.7720   -1.0550 o         1 MOL     -0.639624
     36 O8          3.7570   -2.6450   -1.3890 o         1 MOL     -0.639624
     37 H13         7.2230   -3.1280   -1.4540 hn        1 MOL      0.141983
     38 H14         6.9940   -2.3980   -4.2500 h1        1 MOL      0.080252
     39 H15         4.4200   -2.5790   -3.7240 hc        1 MOL      0.017274
     40 H16         4.8010   -0.9690   -3.7100 hc        1 MOL      0.017274
     41 N4          7.2920    0.0500   -3.6810 n         1 MOL     -0.344593
     42 C14         7.8140    1.3620   -3.5060 c3        1 MOL     -0.099815
     43 C15         7.0860    2.2400   -2.5080 c         1 MOL      0.676088
     44 O9          6.5660    1.6920   -1.4980 o         1 MOL     -0.633662
     45 H17         6.7140   -0.2990   -4.4270 hn        1 MOL      0.260015
     46 H18         7.9170    1.8830   -4.4590 h1        1 MOL      0.080109
     47 H19         8.8410    1.3700   -3.1630 h1        1 MOL      0.080109
     48 N5          7.1090    3.5910   -2.6020 n         1 MOL     -0.634998
     49 C16         6.5570    4.5010   -1.6310 c3        1 MOL      0.410936
     50 C17         5.1210    4.1550   -1.3220 c         1 MOL      0.373585
     51 O10         4.3950    3.6750   -2.1610 o         1 MOL     -0.461376
     52 C18         6.7520    5.9360   -2.2120 c3        1 MOL     -0.318048
     53 C19         6.3840    7.0230   -1.2270 c         1 MOL      0.666271
     54 N6          5.1230    7.2280   -0.8870 n         1 MOL     -0.769623
     55 O11         7.3080    7.6680   -0.7240 o         1 MOL     -0.611053
     56 H20         7.6430    3.9860   -3.3520 hn        1 MOL      0.300296
     57 H21         7.1250    4.3730   -0.7120 h1        1 MOL     -0.073043
     58 H22         5.9530    6.0420   -2.9430 hc        1 MOL      0.098174
     59 H23         7.7520    6.1310   -2.5920 hc        1 MOL      0.098174
     60 H24         4.3400    6.8040   -1.3530 hn        1 MOL      0.362019
     61 H25         4.9830    8.0080   -0.2620 hn        1 MOL      0.362019
     62 N7          4.7310    4.3470   -0.0420 n         1 MOL     -0.205700
     63 C20         3.4410    4.0540    0.4610 c3        1 MOL     -0.027731
     64 C21         2.3660    5.0160    0.0060 c         1 MOL      0.453008
     65 O12         2.5350    5.9680   -0.7470 o         1 MOL     -0.536742
     66 H26         5.3700    4.6570    0.6690 hn        1 MOL      0.172929
     67 H27         3.4270    4.1410    1.5450 h1        1 MOL      0.090672
     68 H28         3.1250    3.0330    0.2430 h1        1 MOL      0.090672
     69 N8          1.2120    4.9160    0.6540 n         1 MOL     -0.283938
     70 C22         0.7830    3.9600    1.7130 c3        1 MOL     -0.522048
     71 C23        -0.6260    3.5960    1.4050 c         1 MOL      0.827787
     72 O13        -1.5070    4.4390    1.2240 o         1 MOL     -0.553580
     73 C24         0.8580    4.6100    3.0760 c3        1 MOL      0.442414
     74 C25         0.4710    3.6000    4.1840 c3        1 MOL     -0.422047
     75 O14         2.1570    4.9480    3.3640 oh        1 MOL     -0.617049
     76 H29         0.5110    5.6100    0.4890 hn        1 MOL      0.265897
     77 H30         1.3660    3.0440    1.6750 h1        1 MOL      0.220327
     78 H31         0.2310    5.4850    3.2160 h1        1 MOL      0.030321
     79 H32         2.2370    5.8890    3.1910 ho        1 MOL      0.373560
     80 H33         0.5340    4.0020    5.1850 hc        1 MOL      0.121842
     81 H34        -0.5910    3.4370    4.0160 hc        1 MOL      0.121842
     82 H35         1.0140    2.6520    4.1260 hc        1 MOL      0.121842
     83 N9         -0.8960    2.3180    1.1630 n         1 MOL     -0.709167
     84 C26        -2.1270    1.9110    0.5920 c3        1 MOL      0.079596
     85 C27        -3.0880    1.7240    1.8140 c         1 MOL      0.584210
     86 O15        -2.7020    1.5260    2.9380 o         1 MOL     -0.630957
     87 C28        -1.8810    0.6140   -0.2370 c3        1 MOL      0.322074
     88 C29        -1.8030   -0.6950    0.6560 c3        1 MOL     -0.038241
     89 C30        -0.7610    0.8700   -1.2340 c3        1 MOL     -0.324209
     90 C31        -1.3320   -1.8940   -0.1450 c3        1 MOL     -0.110609
     91 H36        -0.1320    1.6730    1.3070 hn        1 MOL      0.322561
     92 H37        -2.5730    2.6230   -0.1010 h1        1 MOL      0.110785
     93 H38        -2.7690    0.5420   -0.8610 hc        1 MOL     -0.053437
     94 H39        -2.7810   -0.8210    1.1250 hc        1 MOL      0.001261
     95 H40        -1.0320   -0.5230    1.4110 hc        1 MOL      0.001261
     96 H41        -0.5930    0.0030   -1.8750 hc        1 MOL      0.068818
     97 H42        -1.1370    1.7460   -1.7670 hc        1 MOL      0.068818
     98 H43         0.2030    1.1080   -0.7770 hc        1 MOL      0.068818
     99 H44        -1.3490   -2.7900    0.4750 hc        1 MOL      0.035439
    100 H45        -2.0370   -2.0800   -0.9620 hc        1 MOL      0.035439
    101 H46        -0.3060   -1.8140   -0.4950 hc        1 MOL      0.035439
    102 N10        -4.3700    1.7680    1.6940 n         1 MOL     -0.378495
    103 C32        -5.1470    2.0190    0.4630 c3        1 MOL      0.045771
    104 C33        -6.5410    1.3290    0.5310 c         1 MOL      0.365687
    105 O16        -7.0070    1.0000    1.5990 o         1 MOL     -0.480753
    106 C34        -5.2440    3.5070    0.1400 c3        1 MOL      0.004848
    107 C35        -5.7600    4.3290    1.3580 c         1 MOL      0.670609
    108 O17        -5.0570    4.9830    2.1750 o         1 MOL     -0.684311
    109 O18        -7.0420    4.3450    1.4070 o         1 MOL     -0.684311
    110 H47        -4.9290    1.7910    2.5410 hn        1 MOL      0.312802
    111 H48        -4.5790    1.5830   -0.3460 h1        1 MOL      0.003035
    112 H49        -5.8650    3.8300   -0.6920 hc        1 MOL     -0.037636
    113 H50        -4.2490    3.9170   -0.0640 hc        1 MOL     -0.037636
    114 N11        -7.1160    1.0730   -0.6590 n         1 MOL     -0.522616
    115 C36        -8.5370    0.7440   -0.7570 c3        1 MOL      0.553178
    116 C37        -8.8060   -0.0530   -2.0060 c         1 MOL     -0.078828
    117 O19        -8.2980    0.3780   -3.0540 o         1 MOL     -0.435439
    118 C38        -9.3930    2.0370   -0.8120 c3        1 MOL     -0.169196
    119 C39       -10.8820    1.7810   -0.5230 ca        1 MOL      0.146609
    120 C40       -11.8240    1.5090   -1.5690 ca        1 MOL     -0.285859
    121 C41       -11.2850    1.7150    0.8410 ca        1 MOL     -0.285859
    122 C42       -13.0990    1.1490   -1.2710 ca        1 MOL      0.017358
    123 C43       -12.6570    1.4650    1.0960 ca        1 MOL      0.017358
    124 C44       -13.5250    1.1590    0.0460 ca        1 MOL     -0.254308
    125 H51        -6.6550    1.4130   -1.4800 hn        1 MOL      0.339011
    126 H52        -8.8040    0.1600    0.1150 h1        1 MOL     -0.015277
    127 H53        -9.2040    2.5150   -1.7610 hc        1 MOL      0.061737
    128 H54        -9.0210    2.7670   -0.0850 hc        1 MOL      0.061737
    129 H55       -11.4190    1.5370   -2.5720 ha        1 MOL      0.171777
    130 H56       -10.6310    2.0540    1.6270 ha        1 MOL      0.171777
    131 H57       -13.7600    1.0110   -2.1070 ha        1 MOL      0.069190
    132 H58       -13.0300    1.4290    2.1050 ha        1 MOL      0.069190
    133 H59       -14.5200    0.7440    0.1580 ha        1 MOL      0.100335
    134 N12        -9.5330   -1.1610   -1.9930 n         1 MOL      0.155327
    135 C45       -10.1410   -1.8630   -0.8420 c3        1 MOL     -0.065777
    136 C46        -9.1440   -2.5040    0.1600 c         1 MOL      0.497690
    137 O20        -9.3160   -2.4230    1.3760 o         1 MOL     -0.602986
    138 C47       -11.0550   -2.8950   -1.4550 c3        1 MOL      0.011350
    139 C48       -10.5750   -3.1840   -2.8430 c3        1 MOL     -0.158068
    140 C49        -9.7970   -1.8820   -3.2110 c3        1 MOL     -0.120103
    141 H60       -10.7280   -1.0940   -0.3360 h1        1 MOL      0.083390
    142 H61       -11.1940   -3.7480   -0.7930 hc        1 MOL      0.002325
    143 H62       -12.0050   -2.3570   -1.5520 hc        1 MOL      0.002325
    144 H63        -9.8220   -3.9640   -2.7490 hc        1 MOL      0.067223
    145 H64       -11.3130   -3.5300   -3.5680 hc        1 MOL      0.067223
    146 H65        -8.8910   -2.1130   -3.7760 h1        1 MOL      0.069855
    147 H66       -10.4640   -1.2840   -3.8220 h1        1 MOL      0.069855
    148 N13        -7.9610   -2.9050   -0.2610 n         1 MOL     -0.150585
    149 C50        -7.0020   -3.6520    0.5560 c3        1 MOL      0.143342
    150 C51        -7.4220   -5.0800    1.0240 c         1 MOL      0.360197
    151 O21        -7.4860   -5.9830    0.1610 o         1 MOL     -0.548416
    152 C52        -5.6670   -3.6490   -0.2000 c3        1 MOL      0.072173
    153 C53        -5.1100   -2.2660   -0.5690 c3        1 MOL     -0.081818
    154 C54        -5.5320   -1.7530   -1.8960 c         1 MOL      0.747597
    155 O22        -6.3390   -2.3730   -2.6030 o         1 MOL     -0.678935
    156 O23        -4.9810   -0.8150   -2.4030 o         1 MOL     -0.678935
    157 H67        -7.7210   -2.9170   -1.2400 hn        1 MOL      0.138217
    158 H68        -6.7980   -3.0680    1.4550 h1        1 MOL      0.046012
    159 H69        -5.7650   -4.3240   -1.0440 hc        1 MOL     -0.033167
    160 H70        -4.9380   -4.1340    0.4410 hc        1 MOL     -0.033167
    161 H71        -4.0190   -2.3390   -0.5620 hc        1 MOL     -0.016429
    162 H72        -5.2670   -1.5350    0.2240 hc        1 MOL     -0.016429
    163 N14        -7.7200   -5.4390    2.3100 n         1 MOL     -0.320221
    164 C55        -7.9790   -4.6630    3.5200 c3        1 MOL     -0.118401
    165 H73        -8.9250   -4.9810    3.9590 h1        1 MOL      0.071525
    166 H74        -7.1740   -4.8270    4.2360 h1        1 MOL      0.071525
    167 H75        -8.0340   -3.6040    3.2690 h1        1 MOL      0.071525
    168 H76        -8.0120   -6.4020    2.3740 hn        1 MOL      0.251979
    169 Ca1         6.7830    0.0770    0.6050 Ca        1 MOL      1.759020
    170 O24         4.5730    1.1660    1.5940 oh        1 MOL     -0.858433
    171 H77         4.9240    1.4590    2.4310 ho        1 MOL      0.411910
    172 H78         3.6730    0.8990    1.7880 ho        1 MOL      0.411910
    173 O25         4.8160   -2.2040    1.6240 oh        1 MOL     -0.858433
    174 H79         3.8860   -2.1520    1.4000 ho        1 MOL      0.411910
    175 H80         5.1460   -2.9450    1.1140 ho        1 MOL      0.411910
    176 O26         7.3020    2.7490    1.1090 oh        1 MOL     -0.858433
    177 H81         6.8570    3.1790    1.8400 ho        1 MOL      0.411910
    178 H82         7.9850    3.3540    0.8410 ho        1 MOL      0.411910
    179 O27         6.7210    0.4100    3.3940 oh        1 MOL     -0.858433
    180 H83         7.1010   -0.4660    3.4890 ho        1 MOL      0.411910
    181 H84         6.4280    0.6350    4.2800 ho        1 MOL      0.411910
    182 O28         9.3920    0.6470    0.8980 oh        1 MOL     -0.858433
    183 H85        10.2770    0.3010    0.7760 ho        1 MOL      0.411910
    184 H86         9.5280    1.5670    1.1320 ho        1 MOL      0.411910
@<TRIPOS>BOND
     1    1    2 1   
     2    1    4 1   
     3    1    5 1   
     4    1    6 1   
     5    2    3 2   
     6    2    7 1   
     7    7    8 1   
     8    7   15 1   
     9    8    9 1   
    10    8   11 1   
    11    8   16 1   
    12    9   10 2   
    13    9   19 1   
    14   11   12 1   
    15   11   17 1   
    16   11   18 1   
    17   12   13 1   
    18   12   14 1   
    19   19   20 1   
    20   19   24 1   
    21   20   21 1   
    22   20   23 1   
    23   20   25 1   
    24   21   22 2   
    25   21   29 1   
    26   23   26 1   
    27   23   27 1   
    28   23   28 1   
    29   29   30 1   
    30   29   37 1   
    31   30   31 1   
    32   30   33 1   
    33   30   38 1   
    34   31   32 2   
    35   31   41 1   
    36   33   34 1   
    37   33   39 1   
    38   33   40 1   
    39   34   35 1   
    40   34   36 1   
    41   41   42 1   
    42   41   45 1   
    43   42   43 1   
    44   42   46 1   
    45   42   47 1   
    46   43   44 2   
    47   43   48 1   
    48   48   49 1   
    49   48   56 1   
    50   49   50 1   
    51   49   52 1   
    52   49   57 1   
    53   50   51 2   
    54   50   62 1   
    55   52   53 1   
    56   52   58 1   
    57   52   59 1   
    58   53   54 1   
    59   53   55 2   
    60   54   60 1   
    61   54   61 1   
    62   62   63 1   
    63   62   66 1   
    64   63   64 1   
    65   63   67 1   
    66   63   68 1   
    67   64   65 2   
    68   64   69 1   
    69   69   70 1   
    70   69   76 1   
    71   70   71 1   
    72   70   73 1   
    73   70   77 1   
    74   71   72 2   
    75   71   83 1   
    76   73   74 1   
    77   73   75 1   
    78   73   78 1   
    79   74   80 1   
    80   74   81 1   
    81   74   82 1   
    82   75   79 1   
    83   83   84 1   
    84   83   91 1   
    85   84   85 1   
    86   84   87 1   
    87   84   92 1   
    88   85   86 2   
    89   85  102 1   
    90   87   88 1   
    91   87   89 1   
    92   87   93 1   
    93   88   90 1   
    94   88   94 1   
    95   88   95 1   
    96   89   96 1   
    97   89   97 1   
    98   89   98 1   
    99   90   99 1   
   100   90  100 1   
   101   90  101 1   
   102  102  103 1   
   103  102  110 1   
   104  103  104 1   
   105  103  106 1   
   106  103  111 1   
   107  104  105 2   
   108  104  114 1   
   109  106  107 1   
   110  106  112 1   
   111  106  113 1   
   112  107  108 1   
   113  107  109 1   
   114  114  115 1   
   115  114  125 1   
   116  115  116 1   
   117  115  118 1   
   118  115  126 1   
   119  116  117 2   
   120  116  134 1   
   121  118  119 1   
   122  118  127 1   
   123  118  128 1   
   124  119  120 ar  
   125  119  121 ar  
   126  120  122 ar  
   127  120  129 1   
   128  121  123 ar  
   129  121  130 1   
   130  122  124 ar  
   131  122  131 1   
   132  123  124 ar  
   133  123  132 1   
   134  124  133 1   
   135  134  135 1   
   136  134  140 1   
   137  135  136 1   
   138  135  138 1   
   139  135  141 1   
   140  136  137 2   
   141  136  148 1   
   142  138  139 1   
   143  138  142 1   
   144  138  143 1   
   145  139  140 1   
   146  139  144 1   
   147  139  145 1   
   148  140  146 1   
   149  140  147 1   
   150  148  149 1   
   151  148  157 1   
   152  149  150 1   
   153  149  152 1   
   154  149  158 1   
   155  150  151 2   
   156  150  163 1   
   157  152  153 1   
   158  152  159 1   
   159  152  160 1   
   160  153  154 1   
   161  153  161 1   
   162  153  162 1   
   163  154  155 1   
   164  154  156 1   
   165  163  164 1   
   166  163  168 1   
   167  164  165 1   
   168  164  166 1   
   169  164  167 1   
   170  170  171 1   
   171  170  172 1   
   172  173  174 1   
   173  173  175 1   
   174  176  177 1   
   175  176  178 1   
   176  179  180 1   
   177  179  181 1   
   178  182  183 1   
   179  182  184 1   
@<TRIPOS>SUBSTRUCTURE
     1 MOL         1 TEMP              0 ****  ****    0 ROOT
