@<TRIPOS>MOLECULE
MOL
  195   189     1     0     0
SMALL
resp


@<TRIPOS>ATOM
      1 C1         -5.7050    4.4590    3.9500 c3        1 MOL     -0.307708
      2 C2         -5.0970    3.2710    3.1000 c         1 MOL      0.614453
      3 O1         -4.1820    2.5810    3.5070 o         1 MOL     -0.562205
      4 H1         -6.5350    4.0870    4.5510 hc        1 MOL      0.092881
      5 H2         -4.9370    4.8670    4.6060 hc        1 MOL      0.092881
      6 H3         -6.0640    5.2400    3.2790 hc        1 MOL      0.092881
      7 N1         -5.6410    3.0980    1.8790 n         1 MOL     -0.466714
      8 C3         -5.2180    2.0210    0.9400 c3        1 MOL      0.065635
      9 C4         -3.8160    2.2710    0.2560 c         1 MOL      0.197466
     10 O2         -3.3610    1.3170   -0.3990 o         1 MOL     -0.441369
     11 C5         -6.2400    1.8080   -0.1760 c3        1 MOL     -0.251174
     12 C6         -6.5830    3.0720   -0.9480 c         1 MOL      0.708277
     13 O3         -7.4620    3.8290   -0.4480 o         1 MOL     -0.700487
     14 O4         -6.0890    3.2780   -2.0920 o         1 MOL     -0.700487
     15 H4         -6.4750    3.5600    1.5630 hn        1 MOL      0.295287
     16 H5         -5.1230    1.0520    1.4310 h1        1 MOL      0.092584
     17 H6         -7.2030    1.4920    0.2220 hc        1 MOL      0.085349
     18 H7         -5.8610    1.0170   -0.8310 hc        1 MOL      0.085349
     19 N2         -3.0690    3.3160    0.5820 n         1 MOL     -0.137364
     20 C7         -1.8320    3.7080   -0.0800 c3        1 MOL      0.213572
     21 C8         -0.7260    3.6970    0.9990 c         1 MOL      0.458026
     22 O5         -0.8750    4.3240    2.0420 o         1 MOL     -0.582366
     23 C9         -1.9920    4.9820   -0.9240 c3        1 MOL     -0.317657
     24 C10        -2.9090    4.7210   -2.1450 c3        1 MOL      0.262521
     25 C11        -2.8720    5.8350   -3.2210 c3        1 MOL     -0.272562
     26 C12        -3.8750    5.3770   -4.3150 c3        1 MOL      0.017788
     27 N3         -5.3180    5.2970   -3.8360 n4        1 MOL     -0.438544
     28 H8         -3.5580    4.0140    1.1170 hn        1 MOL      0.190857
     29 H9         -1.6140    2.8510   -0.7250 h1        1 MOL      0.000407
     30 H10        -1.0230    5.3040   -1.3180 hc        1 MOL      0.088084
     31 H11        -2.4030    5.7870   -0.3160 hc        1 MOL      0.088084
     32 H12        -3.9100    4.6490   -1.7150 hc        1 MOL      0.004300
     33 H13        -2.5920    3.7720   -2.5820 hc        1 MOL      0.004300
     34 H14        -1.8870    5.8230   -3.6630 hc        1 MOL      0.104939
     35 H15        -3.2510    6.8030   -2.8870 hc        1 MOL      0.104939
     36 H16        -3.5160    4.4680   -4.8040 hx        1 MOL      0.092196
     37 H17        -3.8780    6.1660   -5.0640 hx        1 MOL      0.092196
     38 H18        -5.9220    5.3520   -4.6380 hn        1 MOL      0.325615
     39 H19        -5.5560    4.5640   -3.1730 hn        1 MOL      0.325615
     40 H20        -5.5230    6.1090   -3.2800 hn        1 MOL      0.325615
     41 N4          0.4240    3.0500    0.8270 n         1 MOL     -0.398728
     42 C13         0.8160    2.0590   -0.2450 c3        1 MOL     -0.094331
     43 C14         0.8590    2.7050   -1.6920 c         1 MOL      0.618832
     44 O6          0.1470    2.2560   -2.5660 o         1 MOL     -0.574959
     45 C15         0.0160    0.6910   -0.2020 c3        1 MOL     -0.032938
     46 C16         0.0140   -0.1140    1.0740 c         1 MOL      0.668033
     47 O7         -1.0210   -0.7620    1.3630 o         1 MOL     -0.727609
     48 O8          0.8900   -0.0150    1.9680 o         1 MOL     -0.727609
     49 H21         1.0500    3.1700    1.6080 hn        1 MOL      0.271350
     50 H22         1.8650    1.8930   -0.0230 h1        1 MOL      0.130422
     51 H23         0.3790    0.0220   -0.9770 hc        1 MOL      0.043604
     52 H24        -1.0290    0.8660   -0.4690 hc        1 MOL      0.043604
     53 N5          1.6480    3.7410   -1.9580 n         1 MOL     -0.515551
     54 C17         2.5780    4.4930   -1.0700 c3        1 MOL      0.048822
     55 C18         3.8390    4.9470   -1.8150 c         1 MOL      0.568605
     56 O9          3.6270    5.3540   -2.9880 o         1 MOL     -0.569329
     57 H25         1.5500    4.1050   -2.8990 hn        1 MOL      0.310006
     58 H26         2.7970    3.9490   -0.1470 h1        1 MOL      0.069820
     59 H27         1.9790    5.3180   -0.6870 h1        1 MOL      0.069820
     60 N6          5.0170    4.9750   -1.2800 n         1 MOL     -0.530590
     61 C19         5.3240    4.7350    0.1520 c3        1 MOL      0.032132
     62 C20         6.8260    4.2500    0.1550 c         1 MOL      0.377739
     63 O10         7.6250    4.6740   -0.6200 o         1 MOL     -0.460958
     64 C21         5.2020    5.9850    1.0400 c3        1 MOL     -0.119869
     65 C22         5.9160    7.2780    0.5790 c         1 MOL      0.671464
     66 O11         5.2580    8.0590   -0.0900 o         1 MOL     -0.616135
     67 O12         7.1040    7.5660    0.9070 o         1 MOL     -0.616135
     68 H28         5.7620    5.4260   -1.7820 hn        1 MOL      0.375878
     69 H29         4.7910    3.8690    0.5120 h1        1 MOL      0.020306
     70 H30         5.4790    5.6270    2.0370 hc        1 MOL      0.006478
     71 H31         4.1470    6.2410    1.1340 hc        1 MOL      0.006478
     72 N7          7.0610    3.2650    0.9590 n         1 MOL     -0.158205
     73 C23         8.2310    2.3740    0.8990 c3        1 MOL     -0.229972
     74 C24         7.5540    1.0170    1.2650 c         1 MOL      0.549747
     75 O13         7.8250    0.4420    2.3480 o         1 MOL     -0.539116
     76 H32         6.4160    3.1810    1.7350 hn        1 MOL      0.217075
     77 H33         8.8630    2.6500    1.7380 h1        1 MOL      0.137474
     78 H34         8.6520    2.2560   -0.1050 h1        1 MOL      0.137474
     79 N8          6.8000    0.5000    0.3190 n         1 MOL     -0.518336
     80 C25         5.9740   -0.7050    0.5970 c3        1 MOL      0.045095
     81 C26         5.9430   -1.5000   -0.6530 c         1 MOL      0.388196
     82 O14         5.4120   -1.0400   -1.6720 o         1 MOL     -0.490439
     83 C27         4.5980   -0.3370    1.1100 c3        1 MOL      0.308582
     84 C28         4.5630    0.7040    2.1680 c3        1 MOL     -0.207790
     85 O15         3.8180   -1.4070    1.4880 oh        1 MOL     -0.567820
     86 H35         6.6390    0.9520   -0.5700 hn        1 MOL      0.342996
     87 H36         6.4040   -1.3470    1.3600 h1        1 MOL      0.078234
     88 H37         4.0680    0.1570    0.2980 h1        1 MOL     -0.049463
     89 H38         3.0010   -0.9530    1.7280 ho        1 MOL      0.352413
     90 H39         4.5310    1.6880    1.7050 hc        1 MOL      0.045845
     91 H40         3.6710    0.6610    2.7960 hc        1 MOL      0.045845
     92 H41         5.4660    0.5810    2.7540 hc        1 MOL      0.045845
     93 N9          6.5100   -2.7260   -0.6030 n         1 MOL     -0.230524
     94 C29         6.5240   -3.6900   -1.7260 c3        1 MOL     -0.232057
     95 C30         5.2160   -4.4390   -2.0140 c         1 MOL      0.388113
     96 O16         5.1960   -5.1750   -3.0400 o         1 MOL     -0.526444
     97 C31         7.7790   -4.6500   -1.6860 c3        1 MOL      0.213055
     98 C32         7.5620   -5.8130   -0.6470 c3        1 MOL     -0.026389
     99 C33         9.0790   -3.8260   -1.5040 c3        1 MOL     -0.270683
    100 C34         7.5250   -5.6350    0.8330 c3        1 MOL     -0.343706
    101 H42         7.1550   -2.9630    0.1370 hn        1 MOL      0.277304
    102 H43         6.7080   -3.0640   -2.5930 h1        1 MOL      0.146601
    103 H44         7.8680   -5.1990   -2.6200 hc        1 MOL      0.009166
    104 H45         8.3010   -6.5860   -0.8680 hc        1 MOL      0.042109
    105 H46         6.5710   -6.2370   -0.8430 hc        1 MOL      0.042109
    106 H47         9.1760   -3.1940   -2.3930 hc        1 MOL      0.067258
    107 H48         9.0280   -3.2470   -0.5780 hc        1 MOL      0.067258
    108 H49         9.9210   -4.5020   -1.6010 hc        1 MOL      0.067258
    109 H50         6.7200   -4.9380    1.0580 hc        1 MOL      0.082760
    110 H51         7.3890   -6.6520    1.2190 hc        1 MOL      0.082760
    111 H52         8.4750   -5.2760    1.2150 hc        1 MOL      0.082760
    112 N10         4.1700   -4.2910   -1.1730 n         1 MOL     -0.008927
    113 C35         2.8230   -4.8300   -1.4450 c3        1 MOL     -0.092019
    114 C36         1.6920   -3.7150   -1.5080 c         1 MOL      0.395816
    115 O17         1.9190   -2.6910   -0.9280 o         1 MOL     -0.393480
    116 C37         2.4710   -5.7020   -0.2570 c3        1 MOL      0.402282
    117 C38         2.3270   -4.9640    1.0790 c3        1 MOL     -0.431918
    118 O18         3.4010   -6.8060   -0.1280 oh        1 MOL     -0.644798
    119 H53         4.2500   -3.7020   -0.3620 hn        1 MOL      0.150367
    120 H54         2.8780   -5.3480   -2.4000 h1        1 MOL      0.091128
    121 H55         1.5490   -6.2150   -0.5340 h1        1 MOL     -0.020730
    122 H56         3.0150   -7.4310    0.4900 ho        1 MOL      0.403623
    123 H57         1.8150   -5.6410    1.7510 hc        1 MOL      0.095237
    124 H58         3.3090   -4.6700    1.4680 hc        1 MOL      0.095237
    125 H59         1.8160   -3.9960    1.0860 hc        1 MOL      0.095237
    126 N11         0.5940   -3.9270   -2.2780 n         1 MOL     -0.362503
    127 C39        -0.5980   -3.0810   -2.4940 c3        1 MOL      0.046625
    128 C40        -1.9450   -3.8810   -2.4310 c         1 MOL      0.381697
    129 O19        -1.9150   -5.0580   -2.6330 o         1 MOL     -0.467433
    130 C41        -0.6160   -2.2950   -3.8070 c3        1 MOL      0.431525
    131 C42        -0.3270   -3.1670   -5.0780 c3        1 MOL     -0.351788
    132 O20         0.2180   -1.1130   -3.6820 oh        1 MOL     -0.622606
    133 H60         0.5550   -4.8380   -2.6950 hn        1 MOL      0.247967
    134 H61        -0.5460   -2.2820   -1.7550 h1        1 MOL      0.082374
    135 H62        -1.6400   -1.9500   -3.9180 h1        1 MOL     -0.080241
    136 H63         0.3000   -0.6500   -4.5220 ho        1 MOL      0.413106
    137 H64        -0.9980   -4.0190   -5.1990 hc        1 MOL      0.087634
    138 H65        -0.4030   -2.4770   -5.9200 hc        1 MOL      0.087634
    139 H66         0.6920   -3.5420   -5.0540 hc        1 MOL      0.087634
    140 N12        -3.0930   -3.1620   -2.2790 n         1 MOL     -0.323882
    141 C43        -4.4390   -3.7030   -2.2440 c3        1 MOL     -0.041162
    142 C44        -5.0650   -3.9850   -0.8580 c         1 MOL      0.584215
    143 O21        -6.0640   -4.6350   -0.8330 o         1 MOL     -0.564432
    144 C45        -5.3920   -3.0250   -3.3080 c3        1 MOL      0.215346
    145 C46        -5.7310   -1.6080   -2.8320 c3        1 MOL     -0.331557
    146 C47        -7.1360   -1.1140   -3.3950 c3        1 MOL      0.047661
    147 C48        -6.9540   -0.7510   -4.8420 c3        1 MOL      0.001143
    148 N13        -8.2300   -0.6440   -5.5380 n4        1 MOL     -0.115890
    149 H67        -2.9510   -2.2260   -1.9090 hn        1 MOL      0.236849
    150 H68        -4.3480   -4.7110   -2.6550 h1        1 MOL      0.100805
    151 H69        -6.2160   -3.7300   -3.4570 hc        1 MOL     -0.030182
    152 H70        -4.8840   -3.0090   -4.2710 hc        1 MOL     -0.030182
    153 H71        -4.9060   -0.9240   -3.0080 hc        1 MOL      0.104311
    154 H72        -5.8990   -1.6250   -1.7550 hc        1 MOL      0.104311
    155 H73        -7.6130   -0.2370   -2.9650 hc        1 MOL      0.039414
    156 H74        -7.9500   -1.8340   -3.2750 hc        1 MOL      0.039414
    157 H75        -6.5430   -1.6280   -5.3400 hx        1 MOL      0.071440
    158 H76        -6.3960    0.1680   -5.0370 hx        1 MOL      0.071440
    159 H77        -8.1930   -0.7810   -6.5370 hn        1 MOL      0.200646
    160 H78        -8.8780   -1.3240   -5.1560 hn        1 MOL      0.200646
    161 H79        -8.6580    0.2720   -5.4300 hn        1 MOL      0.200646
    162 N14        -4.4560   -3.4380    0.1610 n         1 MOL     -0.402376
    163 C49        -4.9290   -3.5050    1.5780 c3        1 MOL     -0.007268
    164 C50        -5.9870   -2.4660    1.8800 c         1 MOL      0.348039
    165 O22        -5.7640   -1.2530    1.8660 o         1 MOL     -0.432824
    166 C51        -3.6690   -3.3830    2.5080 c3        1 MOL     -0.222584
    167 C52        -3.9100   -3.7190    4.0250 c3        1 MOL     -0.072220
    168 C53        -2.6450   -3.5930    4.8940 c         1 MOL      0.648732
    169 O23        -2.4810   -4.3250    5.8820 o         1 MOL     -0.692519
    170 O24        -1.9300   -2.5660    4.7730 o         1 MOL     -0.692519
    171 H80        -3.6780   -2.8200   -0.0090 hn        1 MOL      0.291509
    172 H81        -5.4180   -4.4550    1.7890 h1        1 MOL      0.104416
    173 H82        -3.1870   -2.4040    2.4760 hc        1 MOL      0.077883
    174 H83        -2.8580   -4.0060    2.1370 hc        1 MOL      0.077883
    175 H84        -4.1610   -4.7770    3.9340 hc        1 MOL      0.043750
    176 H85        -4.6740   -3.1450    4.5430 hc        1 MOL      0.043750
    177 N15        -7.1750   -2.8990    2.2960 n         1 MOL     -0.303366
    178 C54        -8.3110   -2.0280    2.6690 c3        1 MOL      0.037334
    179 H86        -8.4950   -2.1100    3.7410 h1        1 MOL      0.044888
    180 H87        -8.0740   -0.9940    2.4200 h1        1 MOL      0.044888
    181 H88        -9.2020   -2.3390    2.1230 h1        1 MOL      0.044888
    182 H89        -7.3370   -3.8830    2.4560 hn        1 MOL      0.251242
    183 Ca1        -0.4590   -0.7080    4.0910 Ca        1 MOL      1.764175
    184 O25        -0.6900    1.9770    3.8320 oh        1 MOL     -0.883928
    185 H90         0.0230    2.5880    3.6020 ho        1 MOL      0.434229
    186 H91        -1.4740    2.3850    3.4780 ho        1 MOL      0.434229
    187 O26        -1.9810    0.1150    6.0750 oh        1 MOL     -0.883928
    188 H92        -2.1450    0.9590    6.4960 ho        1 MOL      0.434229
    189 H93        -2.8510   -0.2850    5.9940 ho        1 MOL      0.434229
    190 O27         0.8810   -2.8700    3.4380 oh        1 MOL     -0.883928
    191 H94         0.3990   -3.6690    3.2140 ho        1 MOL      0.434229
    192 H95         1.7190   -3.1750    3.7620 ho        1 MOL      0.434229
    193 O28        -3.1790   -0.0120    3.4770 oh        1 MOL     -0.883928
    194 H96        -3.6190    0.8340    3.5440 ho        1 MOL      0.434229
    195 H97        -3.6090   -0.4550    2.7430 ho        1 MOL      0.434229
@<TRIPOS>BOND
     1    1    2 1   
     2    1    4 1   
     3    1    5 1   
     4    1    6 1   
     5    2    3 2   
     6    2    7 1   
     7    7    8 1   
     8    7   15 1   
     9    8    9 1   
    10    8   11 1   
    11    8   16 1   
    12    9   10 2   
    13    9   19 1   
    14   11   12 1   
    15   11   17 1   
    16   11   18 1   
    17   12   13 1   
    18   12   14 1   
    19   19   20 1   
    20   19   28 1   
    21   20   21 1   
    22   20   23 1   
    23   20   29 1   
    24   21   22 2   
    25   21   41 1   
    26   23   24 1   
    27   23   30 1   
    28   23   31 1   
    29   24   25 1   
    30   24   32 1   
    31   24   33 1   
    32   25   26 1   
    33   25   34 1   
    34   25   35 1   
    35   26   27 1   
    36   26   36 1   
    37   26   37 1   
    38   27   38 1   
    39   27   39 1   
    40   27   40 1   
    41   41   42 1   
    42   41   49 1   
    43   42   43 1   
    44   42   45 1   
    45   42   50 1   
    46   43   44 2   
    47   43   53 1   
    48   45   46 1   
    49   45   51 1   
    50   45   52 1   
    51   46   47 1   
    52   46   48 1   
    53   53   54 1   
    54   53   57 1   
    55   54   55 1   
    56   54   58 1   
    57   54   59 1   
    58   55   56 2   
    59   55   60 1   
    60   60   61 1   
    61   60   68 1   
    62   61   62 1   
    63   61   64 1   
    64   61   69 1   
    65   62   63 2   
    66   62   72 1   
    67   64   65 1   
    68   64   70 1   
    69   64   71 1   
    70   65   66 1   
    71   65   67 1   
    72   72   73 1   
    73   72   76 1   
    74   73   74 1   
    75   73   77 1   
    76   73   78 1   
    77   74   75 2   
    78   74   79 1   
    79   79   80 1   
    80   79   86 1   
    81   80   81 1   
    82   80   83 1   
    83   80   87 1   
    84   81   82 2   
    85   81   93 1   
    86   83   84 1   
    87   83   85 1   
    88   83   88 1   
    89   84   90 1   
    90   84   91 1   
    91   84   92 1   
    92   85   89 1   
    93   93   94 1   
    94   93  101 1   
    95   94   95 1   
    96   94   97 1   
    97   94  102 1   
    98   95   96 2   
    99   95  112 1   
   100   97   98 1   
   101   97   99 1   
   102   97  103 1   
   103   98  100 1   
   104   98  104 1   
   105   98  105 1   
   106   99  106 1   
   107   99  107 1   
   108   99  108 1   
   109  100  109 1   
   110  100  110 1   
   111  100  111 1   
   112  112  113 1   
   113  112  119 1   
   114  113  114 1   
   115  113  116 1   
   116  113  120 1   
   117  114  115 2   
   118  114  126 1   
   119  116  117 1   
   120  116  118 1   
   121  116  121 1   
   122  117  123 1   
   123  117  124 1   
   124  117  125 1   
   125  118  122 1   
   126  126  127 1   
   127  126  133 1   
   128  127  128 1   
   129  127  130 1   
   130  127  134 1   
   131  128  129 2   
   132  128  140 1   
   133  130  131 1   
   134  130  132 1   
   135  130  135 1   
   136  131  137 1   
   137  131  138 1   
   138  131  139 1   
   139  132  136 1   
   140  140  141 1   
   141  140  149 1   
   142  141  142 1   
   143  141  144 1   
   144  141  150 1   
   145  142  143 2   
   146  142  162 1   
   147  144  145 1   
   148  144  151 1   
   149  144  152 1   
   150  145  146 1   
   151  145  153 1   
   152  145  154 1   
   153  146  147 1   
   154  146  155 1   
   155  146  156 1   
   156  147  148 1   
   157  147  157 1   
   158  147  158 1   
   159  148  159 1   
   160  148  160 1   
   161  148  161 1   
   162  162  163 1   
   163  162  171 1   
   164  163  164 1   
   165  163  166 1   
   166  163  172 1   
   167  164  165 2   
   168  164  177 1   
   169  166  167 1   
   170  166  173 1   
   171  166  174 1   
   172  167  168 1   
   173  167  175 1   
   174  167  176 1   
   175  168  169 1   
   176  168  170 1   
   177  177  178 1   
   178  177  182 1   
   179  178  179 1   
   180  178  180 1   
   181  178  181 1   
   182  184  185 1   
   183  184  186 1   
   184  187  188 1   
   185  187  189 1   
   186  190  191 1   
   187  190  192 1   
   188  193  194 1   
   189  193  195 1   
@<TRIPOS>SUBSTRUCTURE
     1 MOL         1 TEMP              0 ****  ****    0 ROOT
