@<TRIPOS>MOLECULE
MOL
  189   185     1     0     0
SMALL
resp


@<TRIPOS>ATOM
      1 C1          4.8300   -6.3980   -1.6450 c3        1 MOL     -0.360408
      2 C2          4.2700   -5.0520   -1.1280 c         1 MOL      0.716593
      3 O1          3.5980   -4.9440   -0.1150 o         1 MOL     -0.582184
      4 H1          4.0120   -7.0130   -2.0180 hc        1 MOL      0.098454
      5 H2          5.5400   -6.2110   -2.4520 hc        1 MOL      0.098454
      6 H3          5.3340   -6.9190   -0.8320 hc        1 MOL      0.098454
      7 N1          4.6850   -3.9410   -1.7670 n         1 MOL     -0.644779
      8 C3          4.4670   -2.5550   -1.3120 c3        1 MOL     -0.022093
      9 C4          3.0520   -2.0640   -1.0140 c         1 MOL      0.316718
     10 O2          2.9890   -0.9980   -0.4030 o         1 MOL     -0.425451
     11 C5          5.1310   -1.5790   -2.2610 c3        1 MOL      0.134997
     12 C6          4.9790   -1.9980   -3.7110 c         1 MOL      0.554871
     13 O3          4.2120   -1.3390   -4.4330 o         1 MOL     -0.644146
     14 O4          5.7630   -2.9020   -4.0860 o         1 MOL     -0.644146
     15 H4          5.2560   -4.1080   -2.5850 hn        1 MOL      0.357133
     16 H5          4.9370   -2.4570   -0.3330 h1        1 MOL      0.205689
     17 H6          6.1470   -1.4640   -1.8770 hc        1 MOL     -0.074384
     18 H7          4.6850   -0.5830   -2.2020 hc        1 MOL     -0.074384
     19 N2          1.9930   -2.6860   -1.6290 n         1 MOL      0.022936
     20 C7          0.6740   -2.2160   -1.7780 c3        1 MOL      0.062106
     21 C8         -0.2240   -2.9800   -0.7550 c         1 MOL      0.289001
     22 O5         -0.0820   -4.2120   -0.5820 o         1 MOL     -0.498756
     23 C9          0.2670   -2.3750   -3.2320 c3        1 MOL     -0.499621
     24 C10         0.8320   -1.4600   -4.3090 c3        1 MOL     -0.043224
     25 C11         0.5130    0.0940   -4.1630 c3        1 MOL     -0.051354
     26 C12         1.2470    0.7360   -5.2810 c3        1 MOL     -0.153196
     27 N3          2.6840    0.8490   -5.0300 n4        1 MOL     -0.158779
     28 H8          2.2330   -3.6200   -1.9370 hn        1 MOL      0.181777
     29 H9          0.6530   -1.1660   -1.4800 h1        1 MOL      0.051272
     30 H10        -0.8190   -2.2970   -3.2990 hc        1 MOL      0.180717
     31 H11         0.5170   -3.3910   -3.5190 hc        1 MOL      0.180717
     32 H12         0.6280   -1.8450   -5.3080 hc        1 MOL      0.066381
     33 H13         1.9120   -1.6230   -4.3280 hc        1 MOL      0.066381
     34 H14         0.9500    0.3160   -3.1880 hc        1 MOL      0.099501
     35 H15        -0.5420    0.3450   -4.1930 hc        1 MOL      0.099501
     36 H16         0.9100    1.7720   -5.3380 hx        1 MOL      0.099648
     37 H17         1.0610    0.1600   -6.1890 hx        1 MOL      0.099648
     38 H18         3.1450    1.2120   -5.8480 hn        1 MOL      0.245075
     39 H19         2.8400    1.3960   -4.1930 hn        1 MOL      0.245075
     40 H20         3.0790   -0.0660   -4.8450 hn        1 MOL      0.245075
     41 N4         -1.0290   -2.3690    0.1140 n         1 MOL     -0.131838
     42 C13        -1.3650   -0.9250    0.3460 c3        1 MOL     -0.001250
     43 C14        -1.7190   -0.2230   -0.9490 c         1 MOL     -0.020732
     44 O6         -1.1930    0.8240   -1.3660 o         1 MOL     -0.461202
     45 C15        -0.3330   -0.2180    1.1970 c3        1 MOL      0.361437
     46 C16        -0.1350   -0.6900    2.5760 c         1 MOL      0.384108
     47 O7         -0.8080   -1.6480    3.0590 o         1 MOL     -0.767439
     48 O8          0.6600   -0.0410    3.3040 o         1 MOL     -0.767439
     49 H21        -1.6130   -2.9950    0.6390 hn        1 MOL      0.215594
     50 H22        -2.2640   -0.6950    0.9230 h1        1 MOL      0.067167
     51 H23        -0.5850    0.8370    1.3070 hc        1 MOL      0.028427
     52 H24         0.6180   -0.3090    0.6680 hc        1 MOL      0.028427
     53 N5         -2.6290   -0.7940   -1.7480 n         1 MOL     -0.120113
     54 C17        -3.2710   -2.1210   -1.5360 c3        1 MOL     -0.009093
     55 C18        -4.4990   -2.1240   -2.4950 c         1 MOL      0.436340
     56 O9         -4.4700   -1.4990   -3.5680 o         1 MOL     -0.527517
     57 H25        -2.9720   -0.2260   -2.5180 hn        1 MOL      0.189377
     58 H26        -3.6030   -2.2900   -0.5110 h1        1 MOL      0.073353
     59 H27        -2.6310   -2.9550   -1.8280 h1        1 MOL      0.073353
     60 N6         -5.5370   -2.8870   -2.1650 n         1 MOL     -0.321760
     61 C19        -5.7910   -3.6610   -0.9720 c3        1 MOL     -0.041771
     62 C20        -6.7480   -2.9540   -0.0070 c         1 MOL      0.361832
     63 O10        -7.9500   -2.7800   -0.3470 o         1 MOL     -0.398963
     64 C21        -6.3900   -5.0010   -1.3130 c3        1 MOL     -0.033612
     65 C22        -7.4760   -4.9430   -2.4180 c         1 MOL      0.673801
     66 O11        -7.0320   -4.5290   -3.4910 o         1 MOL     -0.612426
     67 O12        -8.6270   -5.3720   -2.2400 o         1 MOL     -0.612426
     68 H28        -6.2270   -3.0320   -2.8900 hn        1 MOL      0.269873
     69 H29        -4.8760   -3.8400   -0.4010 h1        1 MOL      0.004389
     70 H30        -6.7830   -5.3570   -0.3590 hc        1 MOL      0.006446
     71 H31        -5.6810   -5.7510   -1.6640 hc        1 MOL      0.006446
     72 N7         -6.1390   -2.7320    1.1650 n         1 MOL     -0.190660
     73 C23        -6.9650   -2.1740    2.3040 c3        1 MOL     -0.356067
     74 C24        -7.1650   -0.6730    2.1500 c         1 MOL      0.550623
     75 O13        -8.2820   -0.2150    2.3110 o         1 MOL     -0.514587
     76 H32        -5.2170   -3.1160    1.2860 hn        1 MOL      0.252578
     77 H33        -6.3160   -2.3620    3.1530 h1        1 MOL      0.157093
     78 H34        -7.9040   -2.7010    2.4180 h1        1 MOL      0.157093
     79 N8         -6.1010    0.0760    1.7960 n         1 MOL     -0.295141
     80 C25        -6.0490    1.5270    1.3550 c3        1 MOL     -0.342850
     81 C26        -4.8590    1.6620    0.4710 c         1 MOL      0.814723
     82 O14        -3.8570    0.9740    0.6480 o         1 MOL     -0.581232
     83 C27        -6.0100    2.4820    2.5850 c3        1 MOL      0.500601
     84 C28        -4.9850    2.0510    3.7270 c3        1 MOL     -0.088937
     85 O15        -7.2520    2.4500    3.1740 oh        1 MOL     -0.644547
     86 H35        -5.2580   -0.4440    1.5910 hn        1 MOL      0.172683
     87 H36        -6.9390    1.7810    0.7710 h1        1 MOL      0.187453
     88 H37        -5.6610    3.4090    2.1450 h1        1 MOL     -0.003187
     89 H38        -7.3770    1.5390    3.4520 ho        1 MOL      0.420054
     90 H39        -4.9510    2.9390    4.3450 hc        1 MOL     -0.011422
     91 H40        -5.3060    1.1740    4.2960 hc        1 MOL     -0.011422
     92 H41        -3.9830    1.8370    3.3410 hc        1 MOL     -0.011422
     93 N9         -4.9770    2.5350   -0.5300 n         1 MOL     -0.560376
     94 C29        -3.9820    2.7670   -1.6070 c3        1 MOL     -0.590924
     95 C30        -2.7460    3.5440   -1.1650 c         1 MOL      0.497531
     96 O16        -2.1890    4.3640   -1.9290 o         1 MOL     -0.556873
     97 C31        -4.7040    3.3720   -2.7780 c3        1 MOL      0.474383
     98 C32        -5.2930    4.6680   -2.3890 c3        1 MOL      0.134052
     99 C33        -5.6750    2.3300   -3.3920 c3        1 MOL     -0.191990
    100 C34        -5.3500    5.7180   -3.5570 c3        1 MOL     -0.496703
    101 H42        -5.9030    2.9240   -0.6320 hn        1 MOL      0.271080
    102 H43        -3.5880    1.7860   -1.8980 h1        1 MOL      0.345940
    103 H44        -3.9980    3.4400   -3.6180 hc        1 MOL     -0.032627
    104 H45        -4.8220    5.1700   -1.5480 hc        1 MOL      0.006656
    105 H46        -6.3420    4.4990   -2.1600 hc        1 MOL      0.006656
    106 H47        -5.9900    2.6960   -4.3700 hc        1 MOL      0.038212
    107 H48        -5.1630    1.3890   -3.5770 hc        1 MOL      0.038212
    108 H49        -6.5900    2.2260   -2.7900 hc        1 MOL      0.038212
    109 H50        -4.3330    6.1070   -3.5930 hc        1 MOL      0.121499
    110 H51        -5.6180    5.3730   -4.5560 hc        1 MOL      0.121499
    111 H52        -5.9820    6.4510   -3.0410 hc        1 MOL      0.121499
    112 N10        -2.3510    3.4260    0.0610 n         1 MOL     -0.084337
    113 C35        -1.3210    4.3000    0.6520 c3        1 MOL     -0.154161
    114 C36         0.0710    4.0360    0.2960 c         1 MOL      0.408493
    115 O17         0.8880    4.8760    0.5970 o         1 MOL     -0.549365
    116 C37        -1.4830    4.4850    2.1550 c3        1 MOL      0.327505
    117 C38        -1.4120    3.1260    2.9920 c3        1 MOL     -0.236187
    118 O18        -2.7000    5.1900    2.4470 oh        1 MOL     -0.676466
    119 H53        -2.7700    2.7290    0.6630 hn        1 MOL      0.215612
    120 H54        -1.5230    5.3080    0.2820 h1        1 MOL      0.128153
    121 H55        -0.6550    5.1230    2.4640 h1        1 MOL      0.037079
    122 H56        -2.5420    6.0240    2.8920 ho        1 MOL      0.415870
    123 H57        -2.0030    3.1570    3.9120 hc        1 MOL      0.067977
    124 H58        -1.9550    2.3070    2.5270 hc        1 MOL      0.067977
    125 H59        -0.3790    2.9250    3.2670 hc        1 MOL      0.067977
    126 N11         0.3380    2.9250   -0.3720 n         1 MOL      0.003342
    127 C39         1.6750    2.3660   -0.7620 c3        1 MOL      0.009192
    128 C40         2.7150    2.3590    0.3960 c         1 MOL      0.303688
    129 O19         2.7030    3.1210    1.3400 o         1 MOL     -0.418639
    130 C41         2.2630    3.0710   -2.0240 c3        1 MOL      0.243791
    131 C42         1.3550    3.5260   -3.1300 c3        1 MOL     -0.577342
    132 O20         3.1890    2.4070   -2.8070 oh        1 MOL     -0.579690
    133 H60        -0.4690    2.3190   -0.4760 hn        1 MOL      0.032488
    134 H61         1.5910    1.3380   -1.1160 h1        1 MOL      0.008300
    135 H62         2.7290    3.9820   -1.6470 h1        1 MOL      0.036270
    136 H63         3.7520    3.0750   -3.2200 ho        1 MOL      0.291025
    137 H64         1.7730    3.8840   -4.0690 hc        1 MOL      0.159070
    138 H65         0.5770    2.7680   -3.2870 hc        1 MOL      0.159070
    139 H66         0.8530    4.4200   -2.7650 hc        1 MOL      0.159070
    140 N12         3.7810    1.5990    0.1420 n         1 MOL     -0.185055
    141 C43         5.1430    1.7920    0.7260 c3        1 MOL      0.085869
    142 C44         5.4850    0.8150    1.8340 c         1 MOL      0.409659
    143 O21         6.2400    1.1490    2.7650 o         1 MOL     -0.573295
    144 C45         6.2890    1.9640   -0.3520 c3        1 MOL      0.119263
    145 C46         6.5680    3.4240   -0.7340 c3        1 MOL     -0.376593
    146 C47         7.7610    3.3320   -1.6880 c3        1 MOL      0.009760
    147 C48         8.0160    4.6830   -2.4240 c3        1 MOL     -0.119191
    148 N13         7.0430    4.8860   -3.5020 n4        1 MOL     -0.159869
    149 H67         3.7490    0.9080   -0.5960 hn        1 MOL      0.371505
    150 H68         5.1070    2.7640    1.2180 h1        1 MOL      0.020069
    151 H69         5.9490    1.3650   -1.2090 hc        1 MOL     -0.003730
    152 H70         7.2180    1.6190    0.0940 hc        1 MOL     -0.003730
    153 H71         6.9040    3.9140    0.1800 hc        1 MOL      0.131768
    154 H72         5.6650    3.8750   -1.1590 hc        1 MOL      0.131768
    155 H73         7.6030    2.5280   -2.4120 hc        1 MOL      0.074316
    156 H74         8.6560    3.0710   -1.1320 hc        1 MOL      0.074316
    157 H75         8.9790    4.6970   -2.9340 hx        1 MOL      0.123111
    158 H76         7.8690    5.5060   -1.7180 hx        1 MOL      0.123111
    159 H77         7.1650    4.1500   -4.1810 hn        1 MOL      0.236518
    160 H78         6.0760    4.9110   -3.2010 hn        1 MOL      0.236518
    161 H79         7.1130    5.8040   -3.9170 hn        1 MOL      0.236518
    162 N14         5.0640   -0.4150    1.6650 n         1 MOL     -0.006630
    163 C49         5.4670   -1.5270    2.5450 c3        1 MOL     -0.294618
    164 C50         6.8180   -2.0230    1.9240 c         1 MOL      0.323115
    165 O22         6.8950   -2.8430    0.9330 o         1 MOL     -0.471455
    166 C51         4.3730   -2.5790    2.6520 c3        1 MOL      0.464380
    167 C52         3.0910   -2.1060    3.4060 c3        1 MOL     -0.012144
    168 C53         3.2430   -1.7450    4.8920 c         1 MOL      0.397292
    169 O23         4.2790   -2.0950    5.5360 o         1 MOL     -0.647489
    170 O24         2.4540   -1.0040    5.4400 o         1 MOL     -0.647489
    171 H80         4.4170   -0.5480    0.9030 hn        1 MOL     -0.164812
    172 H81         5.6690   -1.0960    3.5220 h1        1 MOL      0.250810
    173 H82         4.8320   -3.4470    3.1190 hc        1 MOL     -0.101063
    174 H83         3.9870   -2.8260    1.6720 hc        1 MOL     -0.101063
    175 H84         2.2790   -2.8250    3.2860 hc        1 MOL      0.008676
    176 H85         2.7600   -1.2800    2.7850 hc        1 MOL      0.008676
    177 N15         7.9040   -1.6920    2.5710 n         1 MOL     -0.105737
    178 C54         9.2270   -2.1460    2.2270 c3        1 MOL     -0.234790
    179 H86         9.9650   -1.5550    2.7690 h1        1 MOL      0.101543
    180 H87         9.3330   -3.1960    2.4980 h1        1 MOL      0.101543
    181 H88         9.3840   -2.0280    1.1560 h1        1 MOL      0.101543
    182 H89         7.8080   -1.1390    3.4130 hn        1 MOL      0.203834
    183 Ca1        -0.0730   -1.1060    5.4980 Ca        1 MOL      1.736208
    184 O25         0.7180    1.3210    6.1560 oh        1 MOL     -0.881540
    185 H90         1.3060    1.6260    5.4690 ho        1 MOL      0.446239
    186 H91         0.7620    1.9950    6.8280 ho        1 MOL      0.446239
    187 O26        -2.3260    0.1560    5.5140 oh        1 MOL     -0.881540
    188 H92        -2.9560   -0.0210    4.8180 ho        1 MOL      0.446239
    189 H93        -2.6240    0.9800    5.9010 ho        1 MOL      0.446239
@<TRIPOS>BOND
     1    1    2 1   
     2    1    4 1   
     3    1    5 1   
     4    1    6 1   
     5    2    3 2   
     6    2    7 1   
     7    7    8 1   
     8    7   15 1   
     9    8    9 1   
    10    8   11 1   
    11    8   16 1   
    12    9   10 2   
    13    9   19 1   
    14   11   12 1   
    15   11   17 1   
    16   11   18 1   
    17   12   13 1   
    18   12   14 1   
    19   19   20 1   
    20   19   28 1   
    21   20   21 1   
    22   20   23 1   
    23   20   29 1   
    24   21   22 2   
    25   21   41 1   
    26   23   24 1   
    27   23   30 1   
    28   23   31 1   
    29   24   25 1   
    30   24   32 1   
    31   24   33 1   
    32   25   26 1   
    33   25   34 1   
    34   25   35 1   
    35   26   27 1   
    36   26   36 1   
    37   26   37 1   
    38   27   38 1   
    39   27   39 1   
    40   27   40 1   
    41   41   42 1   
    42   41   49 1   
    43   42   43 1   
    44   42   45 1   
    45   42   50 1   
    46   43   44 2   
    47   43   53 1   
    48   45   46 1   
    49   45   51 1   
    50   45   52 1   
    51   46   47 1   
    52   46   48 1   
    53   53   54 1   
    54   53   57 1   
    55   54   55 1   
    56   54   58 1   
    57   54   59 1   
    58   55   56 2   
    59   55   60 1   
    60   60   61 1   
    61   60   68 1   
    62   61   62 1   
    63   61   64 1   
    64   61   69 1   
    65   62   63 2   
    66   62   72 1   
    67   64   65 1   
    68   64   70 1   
    69   64   71 1   
    70   65   66 1   
    71   65   67 1   
    72   72   73 1   
    73   72   76 1   
    74   73   74 1   
    75   73   77 1   
    76   73   78 1   
    77   74   75 2   
    78   74   79 1   
    79   79   80 1   
    80   79   86 1   
    81   80   81 1   
    82   80   83 1   
    83   80   87 1   
    84   81   82 2   
    85   81   93 1   
    86   83   84 1   
    87   83   85 1   
    88   83   88 1   
    89   84   90 1   
    90   84   91 1   
    91   84   92 1   
    92   85   89 1   
    93   93   94 1   
    94   93  101 1   
    95   94   95 1   
    96   94   97 1   
    97   94  102 1   
    98   95   96 2   
    99   95  112 1   
   100   97   98 1   
   101   97   99 1   
   102   97  103 1   
   103   98  100 1   
   104   98  104 1   
   105   98  105 1   
   106   99  106 1   
   107   99  107 1   
   108   99  108 1   
   109  100  109 1   
   110  100  110 1   
   111  100  111 1   
   112  112  113 1   
   113  112  119 1   
   114  113  114 1   
   115  113  116 1   
   116  113  120 1   
   117  114  115 2   
   118  114  126 1   
   119  116  117 1   
   120  116  118 1   
   121  116  121 1   
   122  117  123 1   
   123  117  124 1   
   124  117  125 1   
   125  118  122 1   
   126  126  127 1   
   127  126  133 1   
   128  127  128 1   
   129  127  130 1   
   130  127  134 1   
   131  128  129 2   
   132  128  140 1   
   133  130  131 1   
   134  130  132 1   
   135  130  135 1   
   136  131  137 1   
   137  131  138 1   
   138  131  139 1   
   139  132  136 1   
   140  140  141 1   
   141  140  149 1   
   142  141  142 1   
   143  141  144 1   
   144  141  150 1   
   145  142  143 2   
   146  142  162 1   
   147  144  145 1   
   148  144  151 1   
   149  144  152 1   
   150  145  146 1   
   151  145  153 1   
   152  145  154 1   
   153  146  147 1   
   154  146  155 1   
   155  146  156 1   
   156  147  148 1   
   157  147  157 1   
   158  147  158 1   
   159  148  159 1   
   160  148  160 1   
   161  148  161 1   
   162  162  163 1   
   163  162  171 1   
   164  163  164 1   
   165  163  166 1   
   166  163  172 1   
   167  164  165 2   
   168  164  177 1   
   169  166  167 1   
   170  166  173 1   
   171  166  174 1   
   172  167  168 1   
   173  167  175 1   
   174  167  176 1   
   175  168  169 1   
   176  168  170 1   
   177  177  178 1   
   178  177  182 1   
   179  178  179 1   
   180  178  180 1   
   181  178  181 1   
   182  184  185 1   
   183  184  186 1   
   184  187  188 1   
   185  187  189 1   
@<TRIPOS>SUBSTRUCTURE
     1 MOL         1 TEMP              0 ****  ****    0 ROOT
