@<TRIPOS>MOLECULE
MOL
  189   185     1     0     0
SMALL
resp


@<TRIPOS>ATOM
      1 C1          4.3480    3.5260   -4.0640 c3        1 MOL     -0.301026
      2 C2          5.0110    2.7960   -2.8740 c         1 MOL      0.719210
      3 O1          4.3490    2.4280   -1.8820 o         1 MOL     -0.623285
      4 H1          3.4620    2.9750   -4.3790 hc        1 MOL      0.074573
      5 H2          4.0590    4.5320   -3.7580 hc        1 MOL      0.074573
      6 H3          5.0530    3.5860   -4.8930 hc        1 MOL      0.074573
      7 N1          6.2420    2.3640   -3.0480 n         1 MOL     -0.667192
      8 C3          6.9430    1.3190   -2.3220 c3        1 MOL      0.308446
      9 C4          5.9640    0.2370   -1.8790 c         1 MOL      0.210435
     10 O2          5.6190    0.1090   -0.7290 o         1 MOL     -0.409145
     11 C5          7.9250    1.7940   -1.2340 c3        1 MOL     -0.063984
     12 C6          7.5390    3.1670   -0.6390 c         1 MOL      0.662747
     13 O3          6.3690    3.3930   -0.1620 o         1 MOL     -0.699178
     14 O4          8.3560    4.1220   -0.7000 o         1 MOL     -0.699178
     15 H4          6.7540    2.8740   -3.7490 hn        1 MOL      0.340795
     16 H5          7.5920    0.8300   -3.0490 h1        1 MOL     -0.007301
     17 H6          8.8740    2.1140   -1.6730 hc        1 MOL     -0.009303
     18 H7          8.0420    1.0660   -0.4340 hc        1 MOL     -0.009303
     19 N2          5.5150   -0.6270   -2.8650 n         1 MOL     -0.341821
     20 C7          4.8910   -1.9640   -2.7470 c3        1 MOL     -0.000942
     21 C8          5.6490   -2.9400   -1.9070 c         1 MOL      0.386741
     22 O5          6.1260   -3.9510   -2.4800 o         1 MOL     -0.534608
     23 C9          3.4230   -1.8300   -2.3510 c3        1 MOL      0.283874
     24 C10         2.7110   -3.1520   -2.3410 c3        1 MOL     -0.337993
     25 C11         2.6160   -0.7540   -3.0600 c3        1 MOL     -0.323647
     26 C12         2.6310   -3.9550   -3.6790 c3        1 MOL      0.042185
     27 H8          5.6020   -0.2170   -3.7800 hn        1 MOL      0.248350
     28 H9          4.9370   -2.3040   -3.7830 h1        1 MOL      0.040323
     29 H10         3.4810   -1.4880   -1.3140 hc        1 MOL     -0.003222
     30 H11         1.6990   -3.0230   -1.9720 hc        1 MOL      0.096204
     31 H12         3.2470   -3.8910   -1.7380 hc        1 MOL      0.096204
     32 H13         2.7800   -0.6090   -4.1300 hc        1 MOL      0.081947
     33 H14         1.5550   -0.9180   -2.8460 hc        1 MOL      0.081947
     34 H15         2.9000    0.2240   -2.6820 hc        1 MOL      0.081947
     35 H16         2.5100   -3.2590   -4.5040 hc        1 MOL     -0.010396
     36 H17         3.5970   -4.4390   -3.8550 hc        1 MOL     -0.010396
     37 H18         1.9300   -4.7800   -3.7840 hc        1 MOL     -0.010396
     38 N3          5.9360   -2.6680   -0.5970 n         1 MOL     -0.094308
     39 C13         6.7420   -3.4300    0.3290 c3        1 MOL     -0.021472
     40 C14         6.0860   -4.6940    1.0170 c         1 MOL      0.613691
     41 O6          6.6430   -5.7680    0.8970 o         1 MOL     -0.578855
     42 C15         7.4180   -2.5060    1.2980 c3        1 MOL     -0.045111
     43 C16         8.5030   -1.6570    0.7930 c         1 MOL      0.705867
     44 O7          8.8590   -0.6770    1.5130 o         1 MOL     -0.709241
     45 O8          9.2080   -2.0830   -0.2000 o         1 MOL     -0.709241
     46 H19         5.4890   -1.8310   -0.2340 hn        1 MOL      0.219464
     47 H20         7.5240   -3.9400   -0.2230 h1        1 MOL      0.053400
     48 H21         7.9420   -3.1030    2.0460 hc        1 MOL      0.015037
     49 H22         6.7220   -1.8830    1.8620 hc        1 MOL      0.015037
     50 N4          4.8480   -4.6640    1.5470 n         1 MOL     -0.618286
     51 C17         4.0470   -3.4660    1.9250 c3        1 MOL      0.076095
     52 C18         4.6610   -2.7620    3.2460 c         1 MOL      0.435935
     53 O9          5.6000   -3.2940    3.8070 o         1 MOL     -0.525993
     54 H23         4.5450   -5.5170    1.9930 hn        1 MOL      0.319363
     55 H24         3.0090   -3.7490    2.0510 h1        1 MOL      0.068271
     56 H25         4.1810   -2.7460    1.1200 h1        1 MOL      0.068271
     57 N5          4.1320   -1.6220    3.5990 n         1 MOL     -0.302309
     58 C19         2.7830   -1.1060    3.3120 c3        1 MOL     -0.014950
     59 C20         2.6510   -0.6930    1.8890 c         1 MOL      0.046223
     60 O10         3.6560   -0.4520    1.2310 o         1 MOL     -0.498279
     61 C21         2.3890   -0.0040    4.2160 c3        1 MOL     -0.324003
     62 C22         3.2210    1.2700    4.1650 c         1 MOL      0.745639
     63 O11         3.9350    1.7500    5.0620 o         1 MOL     -0.676901
     64 O12         3.1400    1.8610    3.0070 o         1 MOL     -0.676901
     65 H26         4.5990   -1.2190    4.3910 hn        1 MOL      0.269754
     66 H27         2.0560   -1.8790    3.5850 h1        1 MOL      0.110822
     67 H28         2.3950   -0.3470    5.2440 hc        1 MOL      0.095408
     68 H29         1.3630    0.3290    4.0510 hc        1 MOL      0.095408
     69 N6          1.3850   -0.6040    1.3040 n         1 MOL     -0.034769
     70 C23         0.0960   -1.1480    1.7740 c3        1 MOL     -0.158027
     71 C24        -0.2130   -2.5610    1.3580 c         1 MOL      0.635184
     72 O13         0.7390   -3.3000    1.0910 o         1 MOL     -0.578944
     73 H30         1.3900   -0.2460    0.3550 hn        1 MOL      0.215442
     74 H31        -0.6550   -0.4540    1.3910 h1        1 MOL      0.093768
     75 H32         0.0420   -1.2290    2.8590 h1        1 MOL      0.093768
     76 N7         -1.4410   -2.8720    1.1710 n         1 MOL     -0.428648
     77 C25        -2.0670   -4.1580    0.7200 c3        1 MOL      0.095795
     78 C26        -2.7110   -4.2150   -0.6850 c         1 MOL      0.366876
     79 O14        -2.8380   -5.3250   -1.2240 o         1 MOL     -0.517088
     80 C27        -2.9880   -4.7590    1.7850 c3        1 MOL     -0.014648
     81 C28        -4.1670   -3.8460    2.2400 c3        1 MOL     -0.461695
     82 C29        -5.2590   -3.5170    1.1650 c         1 MOL      0.525729
     83 N8         -6.0520   -4.5150    0.7370 n         1 MOL     -0.705589
     84 O15        -5.4620   -2.4070    0.7330 o         1 MOL     -0.447439
     85 H33        -2.1480   -2.1760    1.3710 hn        1 MOL      0.242397
     86 H34        -1.2950   -4.9160    0.6030 h1        1 MOL      0.103639
     87 H35        -2.4050   -4.8770    2.7000 hc        1 MOL      0.045406
     88 H36        -3.2760   -5.7690    1.5040 hc        1 MOL      0.045406
     89 H37        -3.7280   -2.9740    2.7190 hc        1 MOL      0.161049
     90 H38        -4.7880   -4.3860    2.9650 hc        1 MOL      0.161049
     91 H39        -5.8930   -5.4660    1.0690 hn        1 MOL      0.348443
     92 H40        -6.8720   -4.3490    0.1780 hn        1 MOL      0.348443
     93 N9         -2.9360   -3.0130   -1.3130 n         1 MOL     -0.058685
     94 C30        -3.3120   -2.7480   -2.7150 c3        1 MOL     -0.238838
     95 C31        -4.7480   -2.0780   -2.9490 c         1 MOL      0.481654
     96 O16        -5.0170   -1.5960   -4.0480 o         1 MOL     -0.531077
     97 C32        -2.2430   -1.8510   -3.3010 c3        1 MOL      0.192335
     98 C33        -0.9480   -2.6430   -3.4450 c3        1 MOL     -0.075341
     99 C34        -2.1170   -0.5740   -2.4380 c3        1 MOL     -0.075341
    100 H41        -2.7150   -2.1890   -0.7710 hn        1 MOL      0.142839
    101 H42        -3.3700   -3.7260   -3.1900 h1        1 MOL      0.118350
    102 H43        -2.4510   -1.5350   -4.3250 hc        1 MOL     -0.000089
    103 H44        -1.1020   -3.4780   -4.1340 hc        1 MOL      0.012292
    104 H45        -0.1540   -2.1570   -4.0160 hc        1 MOL      0.012292
    105 H46        -0.6560   -2.9320   -2.4410 hc        1 MOL      0.012292
    106 H47        -3.0210   -0.1370   -2.0160 hc        1 MOL      0.012292
    107 H48        -1.4540   -0.8490   -1.6200 hc        1 MOL      0.012292
    108 H49        -1.5880    0.1240   -3.0830 hc        1 MOL      0.012292
    109 N10        -5.6630   -2.1470   -1.9690 n         1 MOL     -0.144460
    110 C35        -7.0280   -1.6840   -2.2010 c3        1 MOL     -0.318047
    111 C36        -7.1840   -0.1630   -2.0110 c         1 MOL      0.660468
    112 O17        -8.1960    0.3930   -2.4200 o         1 MOL     -0.553864
    113 C37        -8.0220   -2.4520   -1.3480 c3        1 MOL      0.087096
    114 C38        -8.3800   -3.8580   -1.7300 c         1 MOL      0.638683
    115 N11        -8.7490   -4.0420   -2.9980 n         1 MOL     -0.818955
    116 O18        -8.2560   -4.7670   -0.9400 o         1 MOL     -0.556103
    117 H50        -5.3510   -2.4190   -1.0510 hn        1 MOL      0.104727
    118 H51        -7.2840   -1.9290   -3.2360 h1        1 MOL      0.121163
    119 H52        -8.9650   -1.9150   -1.4280 hc        1 MOL     -0.010523
    120 H53        -7.8370   -2.3720   -0.2800 hc        1 MOL     -0.010523
    121 H54        -8.5900   -3.3060   -3.6730 hn        1 MOL      0.380005
    122 H55        -8.7360   -5.0190   -3.2540 hn        1 MOL      0.380005
    123 N12        -6.2630    0.4480   -1.2100 n         1 MOL     -0.547906
    124 C39        -6.3970    1.8040   -0.5980 c3        1 MOL      0.374726
    125 C40        -5.1110    2.5940   -0.2440 c         1 MOL      0.259889
    126 O19        -4.0680    2.0020    0.1030 o         1 MOL     -0.359767
    127 C41        -7.3950    1.6540    0.6040 c3        1 MOL     -0.078081
    128 C42        -7.1800    0.5360    1.6510 ca        1 MOL     -0.024947
    129 C43        -8.1770   -0.4480    1.7610 ca        1 MOL     -0.042906
    130 C44        -6.0520    0.5340    2.4280 ca        1 MOL     -0.042906
    131 C45        -8.0200   -1.5290    2.6940 ca        1 MOL     -0.345118
    132 C46        -5.9150   -0.5350    3.3270 ca        1 MOL     -0.345118
    133 C47        -6.8450   -1.5670    3.4470 ca        1 MOL      0.442447
    134 O20        -6.6870   -2.5060    4.4540 oh        1 MOL     -0.512771
    135 H56        -5.5840   -0.1740   -0.8190 hn        1 MOL      0.247315
    136 H57        -6.9520    2.3670   -1.3530 h1        1 MOL      0.000417
    137 H58        -8.3630    1.6370    0.1050 hc        1 MOL      0.023069
    138 H59        -7.3370    2.6310    1.0790 hc        1 MOL      0.023069
    139 H60        -9.0950   -0.3820    1.1870 ha        1 MOL      0.115399
    140 H61        -5.1500    1.1160    2.3070 ha        1 MOL      0.115399
    141 H62        -8.7080   -2.3470    2.6040 ha        1 MOL      0.165762
    142 H63        -5.0150   -0.6250    3.9240 ha        1 MOL      0.165762
    143 H64        -7.3590   -3.1900    4.3910 ho        1 MOL      0.333278
    144 N13        -5.2530    3.9110   -0.1830 n         1 MOL     -0.436467
    145 C48        -4.2620    4.8640    0.3590 c3        1 MOL     -0.048991
    146 C49        -2.8580    5.0520   -0.2410 c         1 MOL      0.238193
    147 O21        -2.2920    6.1080   -0.0780 o         1 MOL     -0.442219
    148 C50        -4.2560    4.8010    1.9180 c3        1 MOL      0.245701
    149 C51        -5.5540    4.8410    2.5890 c3        1 MOL     -0.279524
    150 C52        -5.4550    5.2320    4.0430 c         1 MOL      0.613884
    151 O22        -5.1370    6.3790    4.4390 o         1 MOL     -0.691099
    152 O23        -5.4710    4.3170    4.9070 o         1 MOL     -0.691099
    153 H65        -6.1350    4.3680   -0.3870 hn        1 MOL      0.307364
    154 H66        -4.5880    5.9020    0.3380 h1        1 MOL      0.072311
    155 H67        -3.6560    5.5740    2.3840 hc        1 MOL      0.024934
    156 H68        -3.7410    3.8660    2.1480 hc        1 MOL      0.024934
    157 H69        -6.0100    3.8540    2.4910 hc        1 MOL      0.020001
    158 H70        -6.1450    5.5920    2.0630 hc        1 MOL      0.020001
    159 N14        -2.3100    3.9680   -0.8230 n         1 MOL     -0.161527
    160 C53        -1.0850    4.1440   -1.6410 c3        1 MOL     -0.098803
    161 C54        -1.2620    5.0420   -2.8120 c         1 MOL      0.463498
    162 O24        -0.2790    5.6370   -3.3190 o         1 MOL     -0.538038
    163 C55        -0.4750    2.7840   -2.0980 c3        1 MOL     -0.290252
    164 C56        -0.2040    1.8880   -0.9570 c3        1 MOL      0.457007
    165 C57         1.0070    2.3480   -0.1300 c         1 MOL      0.535810
    166 O25         0.8110    3.2570    0.7500 o         1 MOL     -0.644031
    167 O26         2.0960    1.7950   -0.2280 o         1 MOL     -0.644031
    168 H71        -2.7120    3.0610   -0.6940 hn        1 MOL      0.224694
    169 H72        -0.2690    4.5760   -1.0550 h1        1 MOL      0.156541
    170 H73         0.4110    2.9370   -2.7180 hc        1 MOL      0.078503
    171 H74        -1.2580    2.2520   -2.6440 hc        1 MOL      0.078503
    172 H75         0.1420    0.9400   -1.3700 hc        1 MOL     -0.171840
    173 H76        -1.1220    1.6980   -0.3800 hc        1 MOL     -0.171840
    174 N15        -2.4740    5.0850   -3.3900 n         1 MOL     -0.170024
    175 C58        -2.9280    5.9630   -4.4900 c3        1 MOL     -0.346761
    176 H77        -3.8930    5.6130   -4.8580 h1        1 MOL      0.127078
    177 H78        -3.0290    6.9850   -4.1230 h1        1 MOL      0.127078
    178 H79        -2.2000    5.9380   -5.3010 h1        1 MOL      0.127078
    179 H80        -3.1210    4.4290   -2.9780 hn        1 MOL      0.187780
    180 Ca1         4.4260    2.0050    0.8170 Ca        1 MOL      1.773799
    181 O27         6.6530    0.9700    2.0660 oh        1 MOL     -0.816926
    182 H81         7.3590    0.3660    1.8390 ho        1 MOL      0.380041
    183 H82         6.6180    0.9550    3.0210 ho        1 MOL      0.380041
    184 O28         5.4810    3.5020    2.9020 oh        1 MOL     -0.816926
    185 H83         6.4290    3.6040    3.0190 ho        1 MOL      0.380041
    186 H84         5.1750    3.0910    3.7130 ho        1 MOL      0.380041
    187 O29         3.2290    4.6430    0.3810 oh        1 MOL     -0.816926
    188 H85         2.4200    4.1240    0.3330 ho        1 MOL      0.380041
    189 H86         3.0360    5.4320   -0.1140 ho        1 MOL      0.380041
@<TRIPOS>BOND
     1    1    2 1   
     2    1    4 1   
     3    1    5 1   
     4    1    6 1   
     5    2    3 2   
     6    2    7 1   
     7    7    8 1   
     8    7   15 1   
     9    8    9 1   
    10    8   11 1   
    11    8   16 1   
    12    9   10 2   
    13    9   19 1   
    14   11   12 1   
    15   11   17 1   
    16   11   18 1   
    17   12   13 1   
    18   12   14 1   
    19   19   20 1   
    20   19   27 1   
    21   20   21 1   
    22   20   23 1   
    23   20   28 1   
    24   21   22 2   
    25   21   38 1   
    26   23   24 1   
    27   23   25 1   
    28   23   29 1   
    29   24   26 1   
    30   24   30 1   
    31   24   31 1   
    32   25   32 1   
    33   25   33 1   
    34   25   34 1   
    35   26   35 1   
    36   26   36 1   
    37   26   37 1   
    38   38   39 1   
    39   38   46 1   
    40   39   40 1   
    41   39   42 1   
    42   39   47 1   
    43   40   41 2   
    44   40   50 1   
    45   42   43 1   
    46   42   48 1   
    47   42   49 1   
    48   43   44 1   
    49   43   45 1   
    50   50   51 1   
    51   50   54 1   
    52   51   52 1   
    53   51   55 1   
    54   51   56 1   
    55   52   53 2   
    56   52   57 1   
    57   57   58 1   
    58   57   65 1   
    59   58   59 1   
    60   58   61 1   
    61   58   66 1   
    62   59   60 2   
    63   59   69 1   
    64   61   62 1   
    65   61   67 1   
    66   61   68 1   
    67   62   63 1   
    68   62   64 1   
    69   69   70 1   
    70   69   73 1   
    71   70   71 1   
    72   70   74 1   
    73   70   75 1   
    74   71   72 2   
    75   71   76 1   
    76   76   77 1   
    77   76   85 1   
    78   77   78 1   
    79   77   80 1   
    80   77   86 1   
    81   78   79 2   
    82   78   93 1   
    83   80   81 1   
    84   80   87 1   
    85   80   88 1   
    86   81   82 1   
    87   81   89 1   
    88   81   90 1   
    89   82   83 1   
    90   82   84 2   
    91   83   91 1   
    92   83   92 1   
    93   93   94 1   
    94   93  100 1   
    95   94   95 1   
    96   94   97 1   
    97   94  101 1   
    98   95   96 2   
    99   95  109 1   
   100   97   98 1   
   101   97   99 1   
   102   97  102 1   
   103   98  103 1   
   104   98  104 1   
   105   98  105 1   
   106   99  106 1   
   107   99  107 1   
   108   99  108 1   
   109  109  110 1   
   110  109  117 1   
   111  110  111 1   
   112  110  113 1   
   113  110  118 1   
   114  111  112 2   
   115  111  123 1   
   116  113  114 1   
   117  113  119 1   
   118  113  120 1   
   119  114  115 1   
   120  114  116 2   
   121  115  121 1   
   122  115  122 1   
   123  123  124 1   
   124  123  135 1   
   125  124  125 1   
   126  124  127 1   
   127  124  136 1   
   128  125  126 2   
   129  125  144 1   
   130  127  128 1   
   131  127  137 1   
   132  127  138 1   
   133  128  129 ar  
   134  128  130 ar  
   135  129  131 ar  
   136  129  139 1   
   137  130  132 ar  
   138  130  140 1   
   139  131  133 ar  
   140  131  141 1   
   141  132  133 ar  
   142  132  142 1   
   143  133  134 1   
   144  134  143 1   
   145  144  145 1   
   146  144  153 1   
   147  145  146 1   
   148  145  148 1   
   149  145  154 1   
   150  146  147 2   
   151  146  159 1   
   152  148  149 1   
   153  148  155 1   
   154  148  156 1   
   155  149  150 1   
   156  149  157 1   
   157  149  158 1   
   158  150  151 1   
   159  150  152 1   
   160  159  160 1   
   161  159  168 1   
   162  160  161 1   
   163  160  163 1   
   164  160  169 1   
   165  161  162 2   
   166  161  174 1   
   167  163  164 1   
   168  163  170 1   
   169  163  171 1   
   170  164  165 1   
   171  164  172 1   
   172  164  173 1   
   173  165  166 1   
   174  165  167 1   
   175  174  175 1   
   176  174  179 1   
   177  175  176 1   
   178  175  177 1   
   179  175  178 1   
   180  181  182 1   
   181  181  183 1   
   182  184  185 1   
   183  184  186 1   
   184  187  188 1   
   185  187  189 1   
@<TRIPOS>SUBSTRUCTURE
     1 MOL         1 TEMP              0 ****  ****    0 ROOT
