@<TRIPOS>MOLECULE
MOL
  181   177     1     0     0
SMALL
resp


@<TRIPOS>ATOM
      1 C1          2.8370   -3.1220    3.6970 c3        1 MOL     -0.305589
      2 C2          3.9990   -2.1830    3.2770 c         1 MOL      0.620258
      3 O1          3.6550   -1.0430    2.8920 o         1 MOL     -0.548413
      4 H1          3.0210   -3.5000    4.7030 hc        1 MOL      0.083699
      5 H2          1.8990   -2.5680    3.6830 hc        1 MOL      0.083699
      6 H3          2.7750   -3.9590    3.0010 hc        1 MOL      0.083699
      7 N1          5.2660   -2.5680    3.4880 n         1 MOL     -0.525075
      8 C3          6.3590   -1.7800    2.8580 c3        1 MOL      0.098148
      9 C4          6.5700   -2.0310    1.3580 c         1 MOL      0.584690
     10 O2          6.1120   -3.0790    0.8310 o         1 MOL     -0.570179
     11 C5          7.6920   -1.8460    3.6330 c3        1 MOL     -0.109100
     12 C6          8.2460   -3.2030    4.1740 c         1 MOL      0.661685
     13 O3          9.0330   -3.0990    5.1350 o         1 MOL     -0.708712
     14 O4          7.8550   -4.2970    3.6430 o         1 MOL     -0.708712
     15 H4          5.4680   -3.4870    3.8630 hn        1 MOL      0.314974
     16 H5          6.0010   -0.7530    2.7840 h1        1 MOL      0.018473
     17 H6          7.6530   -1.2030    4.5050 hc        1 MOL      0.003041
     18 H7          8.4900   -1.3990    3.0390 hc        1 MOL      0.003041
     19 N2          7.0960   -1.0190    0.6430 n         1 MOL     -0.590764
     20 C7          6.9080   -0.9290   -0.8400 c3        1 MOL      0.450564
     21 C8          5.5260   -0.3580   -1.1420 c         1 MOL      0.358353
     22 O5          4.9300    0.2700   -0.2650 o         1 MOL     -0.478748
     23 C9          8.0320   -0.0790   -1.4660 c3        1 MOL     -0.361341
     24 H8          7.2820   -0.1670    1.1520 hn        1 MOL      0.290514
     25 H9          6.9670   -1.9390   -1.2340 h1        1 MOL      0.003303
     26 H10         8.0890    0.8640   -0.9240 hc        1 MOL      0.079257
     27 H11         8.9980   -0.5940   -1.3780 hc        1 MOL      0.079257
     28 H12         7.6730    0.2290   -2.4480 hc        1 MOL      0.079257
     29 N3          5.1280   -0.5630   -2.4650 n         1 MOL     -0.433842
     30 C10         3.9180   -0.0100   -3.0940 c3        1 MOL      0.165035
     31 C11         4.1900    1.3750   -3.6830 c         1 MOL      0.464486
     32 O6          4.0650    1.6780   -4.8990 o         1 MOL     -0.521607
     33 C12         3.2660   -0.9690   -4.1600 c3        1 MOL     -0.229540
     34 C13         3.1350   -2.3480   -3.6410 c         1 MOL      0.804256
     35 O7          3.9470   -3.2610   -3.8500 o         1 MOL     -0.757177
     36 O8          2.1410   -2.5210   -2.8980 o         1 MOL     -0.757177
     37 H13         5.6970   -1.2060   -3.0010 hn        1 MOL      0.259518
     38 H14         3.1300    0.1320   -2.3510 h1        1 MOL      0.087556
     39 H15         3.8960   -0.8930   -5.0390 hc        1 MOL      0.044860
     40 H16         2.3220   -0.5840   -4.5670 hc        1 MOL      0.044860
     41 N4          4.6750    2.2430   -2.7800 n         1 MOL     -0.295358
     42 C14         5.3200    3.5310   -3.0490 c3        1 MOL     -0.154607
     43 C15         4.4100    4.6590   -3.2780 c         1 MOL      0.519057
     44 O9          4.9340    5.7520   -3.3770 o         1 MOL     -0.563741
     45 H17         4.7020    1.9800   -1.8120 hn        1 MOL      0.242670
     46 H18         5.8690    3.4950   -3.9910 h1        1 MOL      0.099911
     47 H19         6.0460    3.7920   -2.2730 h1        1 MOL      0.099911
     48 N5          3.0730    4.3810   -3.2730 n         1 MOL     -0.241569
     49 C16         2.0720    5.4140   -3.6120 c3        1 MOL     -0.035126
     50 C17         1.5490    6.2590   -2.4080 c         1 MOL      0.459680
     51 O10         0.9340    7.3010   -2.6380 o         1 MOL     -0.519846
     52 C18         0.9020    4.7410   -4.4210 c3        1 MOL     -0.091029
     53 C19         0.0720    3.8080   -3.5960 c         1 MOL      0.716978
     54 N6         -1.1930    4.0830   -3.5000 n         1 MOL     -0.861529
     55 O11         0.5970    2.9420   -2.9140 o         1 MOL     -0.549040
     56 H20         2.7580    3.4480   -3.0750 hn        1 MOL      0.144578
     57 H21         2.5260    6.0970   -4.3300 h1        1 MOL      0.107185
     58 H22         1.3040    4.1120   -5.2180 hc        1 MOL      0.029100
     59 H23         0.3120    5.5680   -4.8360 hc        1 MOL      0.029100
     60 H24        -1.5700    4.9560   -3.8350 hn        1 MOL      0.399052
     61 H25        -1.6080    3.5550   -2.7400 hn        1 MOL      0.399052
     62 N7          1.7450    5.6970   -1.2190 n         1 MOL     -0.344958
     63 C20         1.4230    6.4230    0.0250 c3        1 MOL     -0.100774
     64 C21        -0.0380    5.9860    0.5850 c         1 MOL      0.478723
     65 O12        -0.8600    5.4740   -0.2500 o         1 MOL     -0.460457
     66 H26         2.1370    4.7570   -1.2040 hn        1 MOL      0.281835
     67 H27         1.4950    7.4890   -0.2000 h1        1 MOL      0.083074
     68 H28         2.1290    6.2270    0.8310 h1        1 MOL      0.083074
     69 N8         -0.2500    6.3310    1.7930 n         1 MOL     -0.267608
     70 C22        -1.5130    6.0910    2.5290 c3        1 MOL     -0.568665
     71 C23        -1.8500    4.6500    2.8630 c         1 MOL      0.663380
     72 O13        -3.0750    4.4130    3.1360 o         1 MOL     -0.576910
     73 C24        -1.6050    6.9750    3.8230 c3        1 MOL      0.555209
     74 C25        -0.7580    6.4860    4.9210 c3        1 MOL     -0.204640
     75 O14        -1.2890    8.3990    3.7240 oh        1 MOL     -0.671258
     76 H29         0.4660    6.7740    2.3590 hn        1 MOL      0.231072
     77 H30        -2.3010    6.3880    1.8350 h1        1 MOL      0.252679
     78 H31        -2.6080    6.7920    4.1940 h1        1 MOL      0.031249
     79 H32        -0.3440    8.5100    3.5900 ho        1 MOL      0.408114
     80 H33        -0.5530    5.4320    4.7390 hc        1 MOL      0.035781
     81 H34         0.1370    7.0760    5.0640 hc        1 MOL      0.035781
     82 H35        -1.4000    6.5230    5.8130 hc        1 MOL      0.035781
     83 N9         -0.9560    3.6740    3.0210 n         1 MOL     -0.378048
     84 C26        -1.3820    2.3040    3.3640 c3        1 MOL      0.061186
     85 C27        -1.1480    1.4050    2.1150 c         1 MOL      0.381942
     86 O15        -0.0280    1.3290    1.6010 o         1 MOL     -0.462194
     87 C28        -0.7030    1.7590    4.7070 c3        1 MOL      0.117054
     88 C29        -0.7950    2.5820    5.9370 c3        1 MOL      0.047450
     89 C30        -1.0520    0.2730    5.0590 c3        1 MOL     -0.096125
     90 C31        -2.1950    2.6950    6.4860 c3        1 MOL      0.035544
     91 H36         0.0160    3.8010    2.7860 hn        1 MOL      0.279498
     92 H37        -2.4550    2.2640    3.5190 h1        1 MOL      0.077308
     93 H38         0.3620    1.7880    4.4620 hc        1 MOL     -0.007431
     94 H39        -0.5060    3.5890    5.6300 hc        1 MOL     -0.016284
     95 H40        -0.0880    2.3870    6.7430 hc        1 MOL     -0.016284
     96 H41        -0.5540   -0.4400    4.3890 hc        1 MOL      0.025528
     97 H42        -0.7620   -0.0260    6.0660 hc        1 MOL      0.025528
     98 H43        -2.1110    0.2070    4.7920 hc        1 MOL      0.025528
     99 H44        -2.4620    1.6670    6.7300 hc        1 MOL     -0.028332
    100 H45        -2.2650    3.3100    7.3930 hc        1 MOL     -0.028332
    101 H46        -2.9120    3.0010    5.7340 hc        1 MOL     -0.028332
    102 N10        -2.1510    0.6160    1.7340 n         1 MOL     -0.491768
    103 C32        -2.0580   -0.4100    0.6690 c3        1 MOL      0.330090
    104 C33        -3.4130   -0.6760   -0.0310 c         1 MOL      0.327287
    105 O16        -3.5920   -1.7040   -0.7110 o         1 MOL     -0.442943
    106 C34        -1.3710   -1.6510    1.3460 c3        1 MOL     -0.110688
    107 C35        -0.5810   -2.5050    0.3590 c         1 MOL      0.663144
    108 O17         0.0220   -2.0280   -0.5970 o         1 MOL     -0.697486
    109 O18        -0.2290   -3.6570    0.7090 o         1 MOL     -0.697486
    110 H47        -2.9230    0.6660    2.3720 hn        1 MOL      0.277150
    111 H48        -1.3800   -0.0310   -0.0960 h1        1 MOL      0.062432
    112 H49        -2.1570   -2.2490    1.8180 hc        1 MOL      0.007703
    113 H50        -0.6580   -1.3850    2.1210 hc        1 MOL      0.007703
    114 N11        -4.3630    0.2520    0.1570 n         1 MOL     -0.353199
    115 C36        -5.5620    0.2930   -0.6640 c3        1 MOL      0.143521
    116 C37        -6.4150   -0.9880   -0.5280 c         1 MOL      0.255610
    117 O19        -6.6650   -1.3540    0.6870 o         1 MOL     -0.520771
    118 C38        -6.3030    1.6520   -0.5080 c3        1 MOL     -0.103748
    119 C39        -5.5280    2.8150   -0.9770 ca        1 MOL      0.128427
    120 C40        -5.4050    3.0900   -2.3660 ca        1 MOL     -0.243448
    121 C41        -5.0000    3.6700    0.0260 ca        1 MOL     -0.243448
    122 C42        -4.7230    4.3520   -2.7130 ca        1 MOL     -0.019154
    123 C43        -4.3570    4.8280   -0.3820 ca        1 MOL     -0.019154
    124 C44        -4.2430    5.2020   -1.7590 ca        1 MOL     -0.200768
    125 H51        -4.1210    1.0220    0.7610 hn        1 MOL      0.214459
    126 H52        -5.2450    0.2940   -1.7040 h1        1 MOL      0.023757
    127 H53        -6.7510    1.8250    0.4730 hc        1 MOL      0.061260
    128 H54        -7.1820    1.6150   -1.1430 hc        1 MOL      0.061260
    129 H55        -5.7710    2.4220   -3.1290 ha        1 MOL      0.143745
    130 H56        -5.0960    3.4100    1.0750 ha        1 MOL      0.143745
    131 H57        -4.5240    4.5430   -3.7570 ha        1 MOL      0.071338
    132 H58        -4.0110    5.5070    0.3840 ha        1 MOL      0.071338
    133 H59        -3.6470    6.0710   -2.0170 ha        1 MOL      0.134319
    134 N12        -6.6070   -1.7670   -1.6060 n         1 MOL     -0.027775
    135 C45        -7.3660   -3.0420   -1.5360 c3        1 MOL      0.045754
    136 C46        -6.7090   -4.0820   -0.5540 c         1 MOL      0.182465
    137 O20        -7.3730   -4.9470    0.0680 o         1 MOL     -0.471155
    138 C47        -7.3920   -3.6090   -2.9760 c3        1 MOL      0.055127
    139 C48        -7.2300   -2.3850   -3.8490 c3        1 MOL     -0.110828
    140 C49        -6.4200   -1.4120   -2.9550 c3        1 MOL     -0.045017
    141 H60        -8.3890   -2.7720   -1.2550 h1        1 MOL      0.060431
    142 H61        -6.5380   -4.2770   -3.0700 hc        1 MOL      0.020369
    143 H62        -8.2850   -4.1620   -3.2680 hc        1 MOL      0.020369
    144 H63        -6.7300   -2.6090   -4.7900 hc        1 MOL      0.041513
    145 H64        -8.1340   -1.8160   -4.0750 hc        1 MOL      0.041513
    146 H65        -5.3710   -1.6460   -3.1530 h1        1 MOL      0.047789
    147 H66        -6.4940   -0.3620   -3.2170 h1        1 MOL      0.047789
    148 N13        -5.3590   -4.0050   -0.3800 n         1 MOL     -0.038084
    149 C50        -4.6810   -4.9820    0.4460 c3        1 MOL     -0.253802
    150 C51        -4.8590   -4.7550    1.9320 c         1 MOL      0.451653
    151 O21        -4.9740   -5.7340    2.6850 o         1 MOL     -0.548476
    152 C52        -3.1640   -5.0520    0.1300 c3        1 MOL      0.123173
    153 C53        -2.8810   -5.6180   -1.2780 c3        1 MOL      0.059216
    154 C54        -1.4540   -5.4570   -1.6300 c         1 MOL      0.506238
    155 O22        -1.1010   -4.4240   -2.3590 o         1 MOL     -0.718184
    156 O23        -0.5900   -6.0330   -0.9940 o         1 MOL     -0.718184
    157 H67        -4.8670   -3.3370   -0.9640 hn        1 MOL      0.254487
    158 H68        -4.9470   -6.0220    0.2380 h1        1 MOL      0.124026
    159 H69        -2.7770   -5.7720    0.8490 hc        1 MOL      0.012152
    160 H70        -2.6280   -4.1240    0.3370 hc        1 MOL      0.012152
    161 H71        -3.4500   -5.0920   -2.0470 hc        1 MOL     -0.044115
    162 H72        -3.1360   -6.6690   -1.3680 hc        1 MOL     -0.044115
    163 N14        -5.1470   -3.5220    2.4020 n         1 MOL     -0.086372
    164 C55        -5.3780   -3.2350    3.8190 c3        1 MOL     -0.239540
    165 H73        -5.3570   -4.1660    4.3860 h1        1 MOL      0.081952
    166 H74        -4.5990   -2.5690    4.1880 h1        1 MOL      0.081952
    167 H75        -6.3510   -2.7580    3.9400 h1        1 MOL      0.081952
    168 H76        -5.0990   -2.7270    1.7930 hn        1 MOL      0.207335
    169 Ca1         1.3890   -4.4680   -1.1960 Ca        1 MOL      1.806042
    170 O24         3.1700   -3.0180    0.3300 oh        1 MOL     -0.836771
    171 H77         2.8050   -2.1480    0.4950 ho        1 MOL      0.406554
    172 H78         4.0860   -2.9570    0.6280 ho        1 MOL      0.406554
    173 O25         3.7870   -5.0640   -1.8770 oh        1 MOL     -0.836771
    174 H79         4.2370   -4.4680   -2.4670 ho        1 MOL      0.406554
    175 H80         4.4460   -5.7120   -1.6370 ho        1 MOL      0.406554
    176 O26         1.1300   -5.8460   -3.5000 oh        1 MOL     -0.836771
    177 H81         0.3210   -6.3590   -3.4820 ho        1 MOL      0.406554
    178 H82         1.0480   -5.2870   -4.2770 ho        1 MOL      0.406554
    179 O27         2.1850   -6.5220    0.6600 oh        1 MOL     -0.836771
    180 H83         2.9110   -7.0570    0.3510 ho        1 MOL      0.406554
    181 H84         2.0270   -6.8130    1.5610 ho        1 MOL      0.406554
@<TRIPOS>BOND
     1    1    2 1   
     2    1    4 1   
     3    1    5 1   
     4    1    6 1   
     5    2    3 2   
     6    2    7 1   
     7    7    8 1   
     8    7   15 1   
     9    8    9 1   
    10    8   11 1   
    11    8   16 1   
    12    9   10 2   
    13    9   19 1   
    14   11   12 1   
    15   11   17 1   
    16   11   18 1   
    17   12   13 1   
    18   12   14 1   
    19   19   20 1   
    20   19   24 1   
    21   20   21 1   
    22   20   23 1   
    23   20   25 1   
    24   21   22 2   
    25   21   29 1   
    26   23   26 1   
    27   23   27 1   
    28   23   28 1   
    29   29   30 1   
    30   29   37 1   
    31   30   31 1   
    32   30   33 1   
    33   30   38 1   
    34   31   32 2   
    35   31   41 1   
    36   33   34 1   
    37   33   39 1   
    38   33   40 1   
    39   34   35 1   
    40   34   36 1   
    41   41   42 1   
    42   41   45 1   
    43   42   43 1   
    44   42   46 1   
    45   42   47 1   
    46   43   44 2   
    47   43   48 1   
    48   48   49 1   
    49   48   56 1   
    50   49   50 1   
    51   49   52 1   
    52   49   57 1   
    53   50   51 2   
    54   50   62 1   
    55   52   53 1   
    56   52   58 1   
    57   52   59 1   
    58   53   54 1   
    59   53   55 2   
    60   54   60 1   
    61   54   61 1   
    62   62   63 1   
    63   62   66 1   
    64   63   64 1   
    65   63   67 1   
    66   63   68 1   
    67   64   65 2   
    68   64   69 1   
    69   69   70 1   
    70   69   76 1   
    71   70   71 1   
    72   70   73 1   
    73   70   77 1   
    74   71   72 2   
    75   71   83 1   
    76   73   74 1   
    77   73   75 1   
    78   73   78 1   
    79   74   80 1   
    80   74   81 1   
    81   74   82 1   
    82   75   79 1   
    83   83   84 1   
    84   83   91 1   
    85   84   85 1   
    86   84   87 1   
    87   84   92 1   
    88   85   86 2   
    89   85  102 1   
    90   87   88 1   
    91   87   89 1   
    92   87   93 1   
    93   88   90 1   
    94   88   94 1   
    95   88   95 1   
    96   89   96 1   
    97   89   97 1   
    98   89   98 1   
    99   90   99 1   
   100   90  100 1   
   101   90  101 1   
   102  102  103 1   
   103  102  110 1   
   104  103  104 1   
   105  103  106 1   
   106  103  111 1   
   107  104  105 2   
   108  104  114 1   
   109  106  107 1   
   110  106  112 1   
   111  106  113 1   
   112  107  108 1   
   113  107  109 1   
   114  114  115 1   
   115  114  125 1   
   116  115  116 1   
   117  115  118 1   
   118  115  126 1   
   119  116  117 2   
   120  116  134 1   
   121  118  119 1   
   122  118  127 1   
   123  118  128 1   
   124  119  120 ar  
   125  119  121 ar  
   126  120  122 ar  
   127  120  129 1   
   128  121  123 ar  
   129  121  130 1   
   130  122  124 ar  
   131  122  131 1   
   132  123  124 ar  
   133  123  132 1   
   134  124  133 1   
   135  134  135 1   
   136  134  140 1   
   137  135  136 1   
   138  135  138 1   
   139  135  141 1   
   140  136  137 2   
   141  136  148 1   
   142  138  139 1   
   143  138  142 1   
   144  138  143 1   
   145  139  140 1   
   146  139  144 1   
   147  139  145 1   
   148  140  146 1   
   149  140  147 1   
   150  148  149 1   
   151  148  157 1   
   152  149  150 1   
   153  149  152 1   
   154  149  158 1   
   155  150  151 2   
   156  150  163 1   
   157  152  153 1   
   158  152  159 1   
   159  152  160 1   
   160  153  154 1   
   161  153  161 1   
   162  153  162 1   
   163  154  155 1   
   164  154  156 1   
   165  163  164 1   
   166  163  168 1   
   167  164  165 1   
   168  164  166 1   
   169  164  167 1   
   170  170  171 1   
   171  170  172 1   
   172  173  174 1   
   173  173  175 1   
   174  176  177 1   
   175  176  178 1   
   176  179  180 1   
   177  179  181 1   
@<TRIPOS>SUBSTRUCTURE
     1 MOL         1 TEMP              0 ****  ****    0 ROOT
