@<TRIPOS>MOLECULE
MOL
  178   175     1     0     0
SMALL
resp


@<TRIPOS>ATOM
      1 C1          1.3970    7.3020   -1.7690 c3        1 MOL     -0.428870
      2 C2          2.8640    6.9490   -1.3720 c         1 MOL      0.762863
      3 O1          3.4340    7.6400   -0.5850 o         1 MOL     -0.601002
      4 H1          0.7310    7.0760   -0.9360 hc        1 MOL      0.098103
      5 H2          1.3300    8.3630   -2.0100 hc        1 MOL      0.098103
      6 H3          1.1030    6.7120   -2.6370 hc        1 MOL      0.098103
      7 N1          3.4330    5.9660   -2.0320 n         1 MOL     -0.652968
      8 C3          4.7270    5.3740   -1.6870 c3        1 MOL      0.323353
      9 C4          4.5950    4.2990   -0.5590 c         1 MOL      0.595047
     10 O2          3.6490    3.4690   -0.6140 o         1 MOL     -0.620774
     11 C5          5.3010    4.7770   -2.9970 c3        1 MOL     -0.260077
     12 C6          6.7390    4.1470   -2.7850 c         1 MOL      0.710826
     13 O3          6.9560    3.0170   -3.1970 o         1 MOL     -0.735504
     14 O4          7.5310    4.7570   -2.0500 o         1 MOL     -0.735504
     15 H4          2.8600    5.4440   -2.6860 hn        1 MOL      0.304792
     16 H5          5.4780    6.1180   -1.4040 h1        1 MOL      0.003696
     17 H6          5.4020    5.5580   -3.7530 hc        1 MOL      0.021454
     18 H7          4.6980    3.9680   -3.3880 hc        1 MOL      0.021454
     19 N2          5.3700    4.4450    0.4450 n         1 MOL     -0.509759
     20 C7          5.1670    3.6170    1.6540 c3        1 MOL      0.357814
     21 C8          3.8250    3.7180    2.3260 c         1 MOL      0.483963
     22 O5          3.2800    4.8270    2.2380 o         1 MOL     -0.562872
     23 C9          6.3430    4.0290    2.5780 c3        1 MOL     -0.371790
     24 H8          5.8650    5.3060    0.6390 hn        1 MOL      0.292924
     25 H9          5.3010    2.5900    1.3200 h1        1 MOL      0.102892
     26 H10         7.3320    3.9390    2.1470 hc        1 MOL      0.091750
     27 H11         6.1460    5.0420    2.9250 hc        1 MOL      0.091750
     28 H12         6.3770    3.4720    3.5180 hc        1 MOL      0.091750
     29 N3          3.2670    2.7710    3.1080 n         1 MOL     -0.467797
     30 C10         3.9270    1.5020    3.5650 c3        1 MOL      0.145691
     31 C11         4.1520    0.4420    2.4210 c         1 MOL     -0.015493
     32 O6          3.5100    0.4860    1.4160 o         1 MOL     -0.319795
     33 C12         3.0890    0.8120    4.6950 c3        1 MOL     -0.220532
     34 C13         1.6770    0.3850    4.3370 c         1 MOL      0.752736
     35 O7          0.9950   -0.1920    5.2260 o         1 MOL     -0.697765
     36 O8          1.1360    0.6930    3.2540 o         1 MOL     -0.697765
     37 H13         2.3100    2.7700    3.4250 hn        1 MOL      0.320656
     38 H14         4.8760    1.8240    4.0100 h1        1 MOL      0.020119
     39 H15         3.0430    1.4480    5.5770 hc        1 MOL      0.047860
     40 H16         3.6100   -0.0810    5.0460 hc        1 MOL      0.047860
     41 N4          5.0570   -0.4880    2.6510 n         1 MOL     -0.235007
     42 C14         5.8020   -1.3670    1.7200 c3        1 MOL     -0.167437
     43 C15         6.6330   -0.6230    0.6990 c         1 MOL      0.610810
     44 O9          6.8780    0.5660    0.7210 o         1 MOL     -0.509591
     45 H17         5.4850   -0.4570    3.5630 hn        1 MOL      0.272260
     46 H18         4.9590   -1.8790    1.2510 h1        1 MOL      0.109936
     47 H19         6.4390   -2.0020    2.3300 h1        1 MOL      0.109936
     48 N5          7.1630   -1.3950   -0.2150 n         1 MOL     -0.482229
     49 C16         6.9320   -2.7900   -0.5020 c3        1 MOL      0.084131
     50 C17         5.8590   -3.0240   -1.5860 c         1 MOL      0.648753
     51 O10         5.5990   -4.2040   -1.9080 o         1 MOL     -0.564403
     52 C18         8.2250   -3.4500   -0.8410 c3        1 MOL     -0.342866
     53 C19         9.1350   -3.4150    0.4100 c         1 MOL      0.722275
     54 N6         10.2990   -2.8410    0.3460 n         1 MOL     -0.790010
     55 O11         8.8680   -3.8550    1.5290 o         1 MOL     -0.564055
     56 H20         7.7090   -0.9230   -0.9240 hn        1 MOL      0.293274
     57 H21         6.5040   -3.2540    0.3790 h1        1 MOL      0.045961
     58 H22         8.6560   -3.0150   -1.7340 hc        1 MOL      0.100344
     59 H23         8.0210   -4.5090   -1.0350 hc        1 MOL      0.100344
     60 H24        10.7180   -2.6120   -0.5330 hn        1 MOL      0.367215
     61 H25        10.7990   -2.6840    1.2140 hn        1 MOL      0.367215
     62 N7          5.2500   -2.0200   -2.2290 n         1 MOL     -0.491816
     63 C20         4.2500   -2.2770   -3.2440 c3        1 MOL     -0.161173
     64 C21         2.8950   -2.8820   -2.8750 c         1 MOL      0.497016
     65 O12         1.9250   -2.5010   -3.5090 o         1 MOL     -0.537440
     66 H26         5.6350   -1.0990   -2.1280 hn        1 MOL      0.362027
     67 H27         4.7090   -3.0400   -3.8700 h1        1 MOL      0.129407
     68 H28         3.9830   -1.3860   -3.8040 h1        1 MOL      0.129407
     69 N8          2.8650   -3.8650   -1.9340 n         1 MOL     -0.155035
     70 C22         1.6540   -4.6550   -1.5500 c3        1 MOL     -0.381341
     71 C23         0.4110   -3.7780   -1.2710 c         1 MOL      0.642520
     72 O13         0.5700   -2.6700   -0.6940 o         1 MOL     -0.643918
     73 C24         2.0070   -5.5760   -0.3700 c3        1 MOL      0.461022
     74 C25         3.0030   -6.6300   -0.8290 c3        1 MOL     -0.519940
     75 O14         2.5090   -4.7390    0.6370 oh        1 MOL     -0.572491
     76 H29         3.6890   -4.1820   -1.4430 hn        1 MOL      0.210414
     77 H30         1.3840   -5.3090   -2.3750 h1        1 MOL      0.122756
     78 H31         1.1020   -6.0810   -0.0070 h1        1 MOL      0.030757
     79 H32         2.0500   -4.8530    1.4680 ho        1 MOL      0.370495
     80 H33         2.7570   -7.0890   -1.7800 hc        1 MOL      0.135246
     81 H34         3.9270   -6.0730   -0.9620 hc        1 MOL      0.135246
     82 H35         3.1520   -7.3220   -0.0110 hc        1 MOL      0.135246
     83 N9         -0.7920   -4.2270   -1.7030 n         1 MOL     -0.293602
     84 C26        -2.0770   -3.5100   -1.5250 c3        1 MOL     -0.288720
     85 C27        -2.6310   -3.7380   -0.0920 c         1 MOL      0.469252
     86 O15        -2.7590   -4.8850    0.3590 o         1 MOL     -0.544510
     87 C28        -3.0890   -3.9010   -2.6770 c3        1 MOL      0.237047
     88 C29        -4.4380   -3.1250   -2.6740 c3        1 MOL      0.040072
     89 C30        -2.3800   -3.7190   -4.1040 c3        1 MOL     -0.159969
     90 C31        -5.4880   -3.4660   -3.7340 c3        1 MOL     -0.037800
     91 H36        -0.8370   -5.1650   -2.0860 hn        1 MOL      0.248746
     92 H37        -1.9730   -2.4280   -1.5570 h1        1 MOL      0.218530
     93 H38        -3.3170   -4.9580   -2.5540 hc        1 MOL     -0.006679
     94 H39        -4.1590   -2.0770   -2.7860 hc        1 MOL     -0.007040
     95 H40        -4.9520   -3.2910   -1.7230 hc        1 MOL     -0.007040
     96 H41        -2.8360   -4.4190   -4.7950 hc        1 MOL      0.028692
     97 H42        -2.4640   -2.6870   -4.4520 hc        1 MOL      0.028692
     98 H43        -1.3350   -4.0150   -4.0790 hc        1 MOL      0.028692
     99 H44        -5.7370   -4.5190   -3.8700 hc        1 MOL     -0.011036
    100 H45        -6.3060   -2.7490   -3.6330 hc        1 MOL     -0.011036
    101 H46        -5.0300   -3.0800   -4.6500 hc        1 MOL     -0.011036
    102 N10        -3.1650   -2.6970    0.5650 n         1 MOL     -0.140599
    103 C32        -3.8350   -2.9050    1.8820 c3        1 MOL     -0.053420
    104 C33        -5.1930   -2.1720    2.1010 c         1 MOL      0.440835
    105 O16        -5.9150   -2.6150    2.9750 o         1 MOL     -0.561993
    106 C34        -2.8660   -2.2430    2.9410 c3        1 MOL     -0.077707
    107 C35        -1.4800   -2.7780    2.7320 c         1 MOL      0.755141
    108 O17        -1.2780   -4.0140    2.9070 o         1 MOL     -0.729002
    109 O18        -0.6050   -1.9000    2.6400 o         1 MOL     -0.729002
    110 H47        -3.0510   -1.7540    0.2180 hn        1 MOL     -0.042669
    111 H48        -3.9860   -3.9380    2.2000 h1        1 MOL      0.115732
    112 H49        -3.1050   -2.4430    3.9850 hc        1 MOL      0.036985
    113 H50        -2.8780   -1.1980    2.6630 hc        1 MOL      0.036985
    114 N11        -5.5190   -1.1810    1.3270 n         1 MOL     -0.370607
    115 C36        -6.7610   -0.3100    1.3780 c3        1 MOL      0.162578
    116 C37        -6.5740    1.0350    0.6030 c         1 MOL      0.337136
    117 O19        -6.9780    1.1810   -0.5640 o         1 MOL     -0.481788
    118 C38        -7.9330   -1.0620    0.8620 c3        1 MOL     -0.220963
    119 C39        -9.2600   -0.3570    0.9510 ca        1 MOL      0.045957
    120 C40        -9.8530   -0.1950    2.2280 ca        1 MOL     -0.112756
    121 C41       -10.0540   -0.0220   -0.2160 ca        1 MOL     -0.112756
    122 C42       -10.9990    0.5450    2.4320 ca        1 MOL     -0.181898
    123 C43       -11.3250    0.6000   -0.0180 ca        1 MOL     -0.181898
    124 C44       -11.7060    1.0130    1.3010 ca        1 MOL     -0.063556
    125 H51        -4.8210   -0.8760    0.6490 hn        1 MOL      0.266501
    126 H52        -7.0660   -0.0940    2.4040 h1        1 MOL      0.036608
    127 H53        -8.1140   -1.8650    1.5760 hc        1 MOL      0.103680
    128 H54        -7.7800   -1.4670   -0.1390 hc        1 MOL      0.103680
    129 H55        -9.3040   -0.5280    3.0980 ha        1 MOL      0.117730
    130 H56        -9.8940   -0.3840   -1.2200 ha        1 MOL      0.117730
    131 H57       -11.3580    0.8050    3.4100 ha        1 MOL      0.118327
    132 H58       -11.9740    0.7960   -0.8670 ha        1 MOL      0.118327
    133 H59       -12.6750    1.4800    1.3830 ha        1 MOL      0.071918
    134 N12        -5.8920    2.0190    1.2380 n         1 MOL     -0.012006
    135 C45        -5.5440    3.3200    0.7660 c3        1 MOL      0.054387
    136 C46        -5.0820    3.3660   -0.7670 c         1 MOL      0.158176
    137 O20        -5.4090    4.3040   -1.4830 o         1 MOL     -0.442108
    138 C47        -4.6190    3.9170    1.7950 c3        1 MOL      0.063902
    139 C48        -4.9660    3.3130    3.0880 c3        1 MOL     -0.248902
    140 C49        -5.3650    1.9090    2.6350 c3        1 MOL     -0.097973
    141 H60        -6.4640    3.8960    0.8130 h1        1 MOL      0.035852
    142 H61        -3.5870    3.6770    1.5470 hc        1 MOL      0.034196
    143 H62        -4.7310    4.9950    1.8690 hc        1 MOL      0.034196
    144 H63        -4.0850    3.2240    3.7420 hc        1 MOL      0.091615
    145 H64        -5.8500    3.8080    3.4840 hc        1 MOL      0.091615
    146 H65        -4.4390    1.3320    2.6320 h1        1 MOL      0.090485
    147 H66        -6.1380    1.4900    3.2760 h1        1 MOL      0.090485
    148 N13        -4.3050    2.4030   -1.2110 n         1 MOL     -0.121548
    149 C50        -3.9430    2.2650   -2.6500 c3        1 MOL     -0.121221
    150 C51        -5.1350    2.3520   -3.5460 c         1 MOL      0.407082
    151 O21        -5.1830    3.2480   -4.3880 o         1 MOL     -0.540765
    152 C52        -3.2590    0.9710   -2.8670 c3        1 MOL      0.057188
    153 C53        -2.0420    0.6350   -1.9460 c3        1 MOL     -0.385945
    154 C54        -2.2440    0.3300   -0.4380 c         1 MOL      0.739679
    155 O22        -1.2840    0.4840    0.3320 o         1 MOL     -0.650192
    156 O23        -3.3760   -0.1070   -0.0880 o         1 MOL     -0.650192
    157 H67        -4.0540    1.6620   -0.5780 hn        1 MOL      0.239754
    158 H68        -3.2340    3.0590   -2.9090 h1        1 MOL      0.116307
    159 H69        -2.9510    0.9720   -3.9110 hc        1 MOL      0.015156
    160 H70        -3.9510    0.1240   -2.8500 hc        1 MOL      0.015156
    161 H71        -1.3470    1.4740   -1.9690 hc        1 MOL      0.096543
    162 H72        -1.4930   -0.2230   -2.3400 hc        1 MOL      0.096543
    163 N14        -6.1390    1.5150   -3.3150 n         1 MOL     -0.036523
    164 C55        -7.2160    1.3820   -4.2620 c3        1 MOL     -0.244227
    165 H73        -8.1680    1.3850   -3.7310 h1        1 MOL      0.087580
    166 H74        -7.1900    2.2160   -4.9630 h1        1 MOL      0.087580
    167 H75        -7.1080    0.4450   -4.8080 h1        1 MOL      0.087580
    168 H76        -6.0720    0.9960   -2.4470 hn        1 MOL      0.182661
    169 Ca1         1.0940   -0.5940    0.9250 Ca        1 MOL      1.812105
    170 O24         1.3330    2.2290    0.5360 oh        1 MOL     -0.934284
    171 H77         2.0840    2.6010    0.0700 ho        1 MOL      0.443264
    172 H78         0.7650    2.9740    0.7160 ho        1 MOL      0.443264
    173 O25         1.7490   -0.2000   -1.6570 oh        1 MOL     -0.934284
    174 H79         1.4130   -0.6480   -2.4320 ho        1 MOL      0.443264
    175 H80         2.3360    0.4720   -2.0130 ho        1 MOL      0.443264
    176 O26         2.4260   -2.3170    2.3290 oh        1 MOL     -0.934284
    177 H81         1.9220   -2.4210    3.1330 ho        1 MOL      0.443264
    178 H82         3.0660   -3.0280    2.3480 ho        1 MOL      0.443264
@<TRIPOS>BOND
     1    1    2 1   
     2    1    4 1   
     3    1    5 1   
     4    1    6 1   
     5    2    3 2   
     6    2    7 1   
     7    7    8 1   
     8    7   15 1   
     9    8    9 1   
    10    8   11 1   
    11    8   16 1   
    12    9   10 2   
    13    9   19 1   
    14   11   12 1   
    15   11   17 1   
    16   11   18 1   
    17   12   13 1   
    18   12   14 1   
    19   19   20 1   
    20   19   24 1   
    21   20   21 1   
    22   20   23 1   
    23   20   25 1   
    24   21   22 2   
    25   21   29 1   
    26   23   26 1   
    27   23   27 1   
    28   23   28 1   
    29   29   30 1   
    30   29   37 1   
    31   30   31 1   
    32   30   33 1   
    33   30   38 1   
    34   31   32 2   
    35   31   41 1   
    36   33   34 1   
    37   33   39 1   
    38   33   40 1   
    39   34   35 1   
    40   34   36 1   
    41   41   42 1   
    42   41   45 1   
    43   42   43 1   
    44   42   46 1   
    45   42   47 1   
    46   43   44 2   
    47   43   48 1   
    48   48   49 1   
    49   48   56 1   
    50   49   50 1   
    51   49   52 1   
    52   49   57 1   
    53   50   51 2   
    54   50   62 1   
    55   52   53 1   
    56   52   58 1   
    57   52   59 1   
    58   53   54 1   
    59   53   55 2   
    60   54   60 1   
    61   54   61 1   
    62   62   63 1   
    63   62   66 1   
    64   63   64 1   
    65   63   67 1   
    66   63   68 1   
    67   64   65 2   
    68   64   69 1   
    69   69   70 1   
    70   69   76 1   
    71   70   71 1   
    72   70   73 1   
    73   70   77 1   
    74   71   72 2   
    75   71   83 1   
    76   73   74 1   
    77   73   75 1   
    78   73   78 1   
    79   74   80 1   
    80   74   81 1   
    81   74   82 1   
    82   75   79 1   
    83   83   84 1   
    84   83   91 1   
    85   84   85 1   
    86   84   87 1   
    87   84   92 1   
    88   85   86 2   
    89   85  102 1   
    90   87   88 1   
    91   87   89 1   
    92   87   93 1   
    93   88   90 1   
    94   88   94 1   
    95   88   95 1   
    96   89   96 1   
    97   89   97 1   
    98   89   98 1   
    99   90   99 1   
   100   90  100 1   
   101   90  101 1   
   102  102  103 1   
   103  102  110 1   
   104  103  104 1   
   105  103  106 1   
   106  103  111 1   
   107  104  105 2   
   108  104  114 1   
   109  106  107 1   
   110  106  112 1   
   111  106  113 1   
   112  107  108 1   
   113  107  109 1   
   114  114  115 1   
   115  114  125 1   
   116  115  116 1   
   117  115  118 1   
   118  115  126 1   
   119  116  117 2   
   120  116  134 1   
   121  118  119 1   
   122  118  127 1   
   123  118  128 1   
   124  119  120 ar  
   125  119  121 ar  
   126  120  122 ar  
   127  120  129 1   
   128  121  123 ar  
   129  121  130 1   
   130  122  124 ar  
   131  122  131 1   
   132  123  124 ar  
   133  123  132 1   
   134  124  133 1   
   135  134  135 1   
   136  134  140 1   
   137  135  136 1   
   138  135  138 1   
   139  135  141 1   
   140  136  137 2   
   141  136  148 1   
   142  138  139 1   
   143  138  142 1   
   144  138  143 1   
   145  139  140 1   
   146  139  144 1   
   147  139  145 1   
   148  140  146 1   
   149  140  147 1   
   150  148  149 1   
   151  148  157 1   
   152  149  150 1   
   153  149  152 1   
   154  149  158 1   
   155  150  151 2   
   156  150  163 1   
   157  152  153 1   
   158  152  159 1   
   159  152  160 1   
   160  153  154 1   
   161  153  161 1   
   162  153  162 1   
   163  154  155 1   
   164  154  156 1   
   165  163  164 1   
   166  163  168 1   
   167  164  165 1   
   168  164  166 1   
   169  164  167 1   
   170  170  171 1   
   171  170  172 1   
   172  173  174 1   
   173  173  175 1   
   174  176  177 1   
   175  176  178 1   
@<TRIPOS>SUBSTRUCTURE
     1 MOL         1 TEMP              0 ****  ****    0 ROOT
