@<TRIPOS>MOLECULE
MOL
  189   185     1     0     0
SMALL
resp


@<TRIPOS>ATOM
      1 C1         11.7900    5.4020   -2.4980 c3        1 MOL     -0.043924
      2 C2         11.5460    4.1110   -1.7320 c         1 MOL      0.698015
      3 O1         11.6210    3.0080   -2.2690 o         1 MOL     -0.634346
      4 H1         12.0870    5.1670   -3.5200 hc        1 MOL      0.003746
      5 H2         10.8760    5.9940   -2.5130 hc        1 MOL      0.003746
      6 H3         12.5840    5.9680   -2.0120 hc        1 MOL      0.003746
      7 N1         11.2220    4.2150   -0.4770 n         1 MOL     -0.561811
      8 C3         10.9090    2.9160    0.3600 c3        1 MOL      0.022562
      9 C4          9.6430    2.2080   -0.0810 c         1 MOL      0.556785
     10 O2          8.6080    2.9000   -0.3160 o         1 MOL     -0.533802
     11 C5         10.8130    3.1860    1.8270 c3        1 MOL      0.050886
     12 C6         10.0450    4.3960    2.2540 c         1 MOL      0.801531
     13 O3          9.1000    4.8520    1.5930 o         1 MOL     -0.760258
     14 O4         10.3600    4.9770    3.3460 o         1 MOL     -0.760258
     15 H4         11.1170    5.1150   -0.0360 hn        1 MOL      0.250755
     16 H5         11.6790    2.1660    0.2170 h1        1 MOL      0.039002
     17 H6         11.8520    3.3130    2.1310 hc        1 MOL     -0.002638
     18 H7         10.4230    2.2820    2.3100 hc        1 MOL     -0.002638
     19 N2          9.6920    0.8580   -0.1980 n         1 MOL     -0.293827
     20 C7          8.7050   -0.1470   -0.7060 c3        1 MOL     -0.258150
     21 C8          7.4800   -0.3290    0.2850 c         1 MOL      0.821555
     22 O5          7.7360   -0.4600    1.5030 o         1 MOL     -0.595487
     23 C9          9.4150   -1.4350   -1.0880 c3        1 MOL     -0.110769
     24 C10         8.6200   -2.6270   -1.6510 c3        1 MOL     -0.018565
     25 C11         9.5180   -3.8470   -1.9480 c3        1 MOL     -0.119112
     26 C12         9.9340   -4.8200   -0.8010 c3        1 MOL      0.044459
     27 N3          9.0450   -6.0230   -0.7810 n4        1 MOL     -0.404617
     28 H8         10.5560    0.4530    0.1450 hn        1 MOL      0.226555
     29 H9          8.3060    0.2280   -1.6470 h1        1 MOL      0.164655
     30 H10        10.0420   -1.7540   -0.2610 hc        1 MOL      0.078070
     31 H11        10.1760   -1.2650   -1.8520 hc        1 MOL      0.078070
     32 H12         8.1920   -2.3440   -2.6130 hc        1 MOL      0.047266
     33 H13         7.7970   -2.8350   -0.9770 hc        1 MOL      0.047266
     34 H14        10.4900   -3.4590   -2.2740 hc        1 MOL      0.070714
     35 H15         9.0390   -4.3900   -2.7650 hc        1 MOL      0.070714
     36 H16         9.8620   -4.2660    0.1420 hx        1 MOL      0.089049
     37 H17        10.9320   -5.2390   -0.9250 hx        1 MOL      0.089049
     38 H18         8.1070   -5.6650   -0.6600 hn        1 MOL      0.339806
     39 H19         9.2370   -6.6370   -1.5520 hn        1 MOL      0.339806
     40 H20         9.2120   -6.6210    0.0140 hn        1 MOL      0.339806
     41 N4          6.2320   -0.2270   -0.1550 n         1 MOL     -0.796653
     42 C13         4.9700   -0.2090    0.7210 c3        1 MOL      0.649316
     43 C14         3.7090   -0.4270   -0.1070 c         1 MOL      0.347509
     44 O6          3.7660   -0.1500   -1.3110 o         1 MOL     -0.516598
     45 C15         5.0140    1.1060    1.5920 c3        1 MOL     -0.357733
     46 C16         5.6820    2.3780    0.9160 c         1 MOL      0.702957
     47 O7          5.6480    2.6990   -0.2760 o         1 MOL     -0.724331
     48 O8          6.2300    3.2070    1.6810 o         1 MOL     -0.724331
     49 H21         6.2480   -0.0510   -1.1500 hn        1 MOL      0.323068
     50 H22         4.9810   -1.1080    1.3330 h1        1 MOL     -0.083105
     51 H23         5.5850    0.8090    2.4730 hc        1 MOL      0.102905
     52 H24         4.0280    1.3110    2.0100 hc        1 MOL      0.102905
     53 N5          2.5920   -0.8440    0.5010 n         1 MOL     -0.370909
     54 C17         2.4440   -1.1030    1.8860 c3        1 MOL     -0.157930
     55 C18         2.3420   -2.5760    2.2870 c         1 MOL      0.582870
     56 O9          2.7570   -3.5360    1.5800 o         1 MOL     -0.560956
     57 H25         1.8180   -1.0240   -0.1260 hn        1 MOL      0.306180
     58 H26         1.4980   -0.6750    2.2170 h1        1 MOL      0.092233
     59 H27         3.1960   -0.6230    2.5180 h1        1 MOL      0.092233
     60 N6          1.7610   -2.8370    3.4440 n         1 MOL     -0.373790
     61 C19         1.5470   -4.2170    3.9290 c3        1 MOL      0.000698
     62 C20         0.5320   -4.9860    3.0460 c         1 MOL      0.346983
     63 O10        -0.6210   -4.6810    2.9240 o         1 MOL     -0.464522
     64 C21         1.0220   -4.1920    5.3590 c3        1 MOL     -0.139455
     65 C22         0.8910   -5.5690    5.9970 c         1 MOL      0.754267
     66 O11         0.0690   -5.6430    6.9290 o         1 MOL     -0.679687
     67 O12         1.7540   -6.4710    5.8380 o         1 MOL     -0.679687
     68 H28         1.3110   -2.0780    3.9260 hn        1 MOL      0.266444
     69 H29         2.5130   -4.7370    3.9950 h1        1 MOL      0.046713
     70 H30         0.0240   -3.7420    5.3550 hc        1 MOL      0.042500
     71 H31         1.7320   -3.5540    5.8920 hc        1 MOL      0.042500
     72 N7          0.9970   -5.9340    2.2480 n         1 MOL     -0.168726
     73 C23         0.1970   -6.7330    1.2960 c3        1 MOL     -0.481410
     74 C24        -0.1560   -5.9800   -0.0260 c         1 MOL      0.569622
     75 O13        -0.9460   -6.4810   -0.8190 o         1 MOL     -0.559131
     76 H32         1.9480   -6.2320    2.4180 hn        1 MOL      0.214868
     77 H33        -0.7140   -6.9010    1.8760 h1        1 MOL      0.210205
     78 H34         0.8330   -7.5500    0.9590 h1        1 MOL      0.210205
     79 N8          0.4430   -4.8090   -0.2780 n         1 MOL     -0.219891
     80 C25         0.2370   -3.9710   -1.4880 c3        1 MOL     -0.052253
     81 C26        -0.2360   -2.5580   -1.2030 c         1 MOL      0.342876
     82 O14         0.1520   -1.9520   -0.2130 o         1 MOL     -0.452540
     83 C27         1.3930   -4.0830   -2.5210 c3        1 MOL      0.379078
     84 C28         2.7390   -3.5520   -1.9540 c3        1 MOL     -0.463534
     85 O15         1.5400   -5.4310   -2.9470 oh        1 MOL     -0.642800
     86 H35         1.2160   -4.6000    0.3350 hn        1 MOL      0.204236
     87 H36        -0.6390   -4.3740   -1.9820 h1        1 MOL      0.029051
     88 H37         1.1330   -3.5550   -3.4310 h1        1 MOL      0.044598
     89 H38         2.0580   -5.8900   -2.2840 ho        1 MOL      0.392452
     90 H39         3.4130   -4.4010   -1.8100 hc        1 MOL      0.104104
     91 H40         3.0660   -2.7570   -2.6340 hc        1 MOL      0.104104
     92 H41         2.5570   -3.0490   -1.0090 hc        1 MOL      0.104104
     93 N9         -1.0720   -2.0090   -2.1650 n         1 MOL     -0.002621
     94 C29        -1.6490   -0.7010   -2.0010 c3        1 MOL     -0.446749
     95 C30        -3.2330   -0.8690   -1.6580 c         1 MOL      0.809942
     96 O16        -3.7450    0.0460   -1.0670 o         1 MOL     -0.571355
     97 C31        -1.3910    0.3010   -3.1760 c3        1 MOL      0.231827
     98 C32        -0.1110    0.0560   -3.9120 c3        1 MOL     -0.208158
     99 C33        -1.4240    1.7350   -2.6230 c3        1 MOL     -0.256767
    100 C34         1.1930   -0.0140   -3.1190 c3        1 MOL     -0.393315
    101 H42        -1.2940   -2.5160   -3.0180 hn        1 MOL      0.202192
    102 H43        -1.2070   -0.2690   -1.1060 h1        1 MOL      0.178016
    103 H44        -2.2440    0.3700   -3.8510 hc        1 MOL      0.013251
    104 H45        -0.0910    0.8080   -4.6930 hc        1 MOL      0.045992
    105 H46        -0.2510   -0.8840   -4.4450 hc        1 MOL      0.045992
    106 H47        -1.2770    2.4140   -3.4700 hc        1 MOL      0.073536
    107 H48        -2.4450    2.0000   -2.3320 hc        1 MOL      0.073536
    108 H49        -0.6560    1.9530   -1.8790 hc        1 MOL      0.073536
    109 H50         2.0110    0.0880   -3.8440 hc        1 MOL      0.147867
    110 H51         1.2350    0.9040   -2.5190 hc        1 MOL      0.147867
    111 H52         1.1500   -0.8960   -2.4770 hc        1 MOL      0.147867
    112 N10        -3.8890   -1.9810   -1.9450 n         1 MOL     -0.698403
    113 C35        -5.1300   -2.4470   -1.4470 c3        1 MOL      0.122620
    114 C36        -6.2950   -1.9370   -2.3630 c         1 MOL      0.516868
    115 O17        -6.0330   -1.6350   -3.5590 o         1 MOL     -0.507750
    116 C37        -5.0600   -3.8800   -1.1560 c3        1 MOL      0.219458
    117 C38        -4.0330   -4.1440   -0.0840 c3        1 MOL     -0.284658
    118 O18        -6.2940   -4.3150   -0.6380 oh        1 MOL     -0.670958
    119 H53        -3.3400   -2.6580   -2.4520 hn        1 MOL      0.298164
    120 H54        -5.3320   -1.9710   -0.4770 h1        1 MOL      0.083672
    121 H55        -4.7560   -4.4190   -2.0500 h1        1 MOL      0.039437
    122 H56        -6.4210   -5.2580   -0.6260 ho        1 MOL      0.433261
    123 H57        -4.0400   -5.1930    0.1930 hc        1 MOL      0.102283
    124 H58        -3.0450   -3.9690   -0.5040 hc        1 MOL      0.102283
    125 H59        -4.2070   -3.5590    0.8280 hc        1 MOL      0.102283
    126 N11        -7.5010   -1.9590   -1.8670 n         1 MOL     -0.337650
    127 C39        -8.7110   -1.6090   -2.5620 c3        1 MOL     -0.260878
    128 C40        -9.2670   -0.1880   -2.3650 c         1 MOL      0.583294
    129 O19       -10.0720    0.2680   -3.1720 o         1 MOL     -0.558685
    130 C41        -9.9040   -2.7260   -2.3800 c3        1 MOL      0.473066
    131 C42       -10.5820   -2.7360   -0.9930 c3        1 MOL     -0.210360
    132 O20        -9.4550   -3.9880   -2.7310 oh        1 MOL     -0.624790
    133 H60        -7.6910   -2.2940   -0.9300 hn        1 MOL      0.303958
    134 H61        -8.4100   -1.6170   -3.6170 h1        1 MOL      0.113234
    135 H62       -10.7540   -2.4430   -3.0020 h1        1 MOL     -0.041848
    136 H63        -9.3500   -3.9990   -3.6850 ho        1 MOL      0.398085
    137 H64        -9.8590   -2.9120   -0.1950 hc        1 MOL      0.061904
    138 H65       -11.0210   -1.7580   -0.8600 hc        1 MOL      0.061904
    139 H66       -11.3930   -3.4700   -0.9640 hc        1 MOL      0.061904
    140 N12        -8.8750    0.4040   -1.2260 n         1 MOL     -0.218721
    141 C43        -9.3480    1.6880   -0.7520 c3        1 MOL      0.021623
    142 C44        -8.3890    2.4540    0.1700 c         1 MOL      0.379428
    143 O21        -7.5170    1.8720    0.7870 o         1 MOL     -0.450487
    144 C45       -10.7750    1.5550   -0.1810 c3        1 MOL     -0.176097
    145 C46       -10.9340    0.7870    1.1470 c3        1 MOL      0.043877
    146 C47       -12.3240    0.1740    1.4910 c3        1 MOL     -0.113358
    147 C48       -13.4150    1.1670    1.6500 c3        1 MOL      0.074798
    148 N13       -13.3010    1.9970    2.9130 n4        1 MOL     -0.356886
    149 H67        -8.1720   -0.0510   -0.6740 hn        1 MOL      0.159318
    150 H68        -9.4770    2.3820   -1.5750 h1        1 MOL      0.079090
    151 H69       -11.4080    0.9450   -0.8310 hc        1 MOL      0.056021
    152 H70       -11.1970    2.5530   -0.0290 hc        1 MOL      0.056021
    153 H71       -10.5830    1.4370    1.9570 hc        1 MOL      0.018259
    154 H72       -10.2680   -0.0730    1.1630 hc        1 MOL      0.018259
    155 H73       -12.1830   -0.2920    2.4660 hc        1 MOL      0.057901
    156 H74       -12.7270   -0.5860    0.8160 hc        1 MOL      0.057901
    157 H75       -14.3720    0.6440    1.6620 hx        1 MOL      0.083128
    158 H76       -13.3680    1.8730    0.8310 hx        1 MOL      0.083128
    159 H77       -14.0210    2.6740    3.0920 hn        1 MOL      0.321534
    160 H78       -13.3100    1.3360    3.6720 hn        1 MOL      0.321534
    161 H79       -12.4350    2.5090    2.9960 hn        1 MOL      0.321534
    162 N14        -8.5280    3.8170    0.2590 n         1 MOL     -0.364119
    163 C49        -7.7390    4.5650    1.2000 c3        1 MOL      0.035129
    164 C50        -6.2160    4.5220    1.1030 c         1 MOL      0.471028
    165 O22        -5.5820    4.4430    2.1000 o         1 MOL     -0.511665
    166 C51        -8.0940    6.0050    1.0970 c3        1 MOL     -0.064042
    167 C52        -7.4310    6.8740    2.1650 c3        1 MOL     -0.184787
    168 C53        -8.2220    8.1590    2.3110 c         1 MOL      0.718890
    169 O23        -7.9270    9.1830    1.7030 o         1 MOL     -0.686085
    170 O24        -9.1180    8.0570    3.1370 o         1 MOL     -0.686085
    171 H80        -9.2450    4.2190   -0.3210 hn        1 MOL      0.249032
    172 H81        -8.0720    4.2290    2.1830 h1        1 MOL      0.092698
    173 H82        -9.1750    6.0190    1.2610 hc        1 MOL      0.026408
    174 H83        -7.8320    6.3410    0.0940 hc        1 MOL      0.026408
    175 H84        -6.3800    6.9750    1.8910 hc        1 MOL      0.050182
    176 H85        -7.4620    6.2440    3.0580 hc        1 MOL      0.050182
    177 N15        -5.5410    4.5350   -0.0920 n         1 MOL     -0.332205
    178 C54        -5.6300    5.3170   -1.3430 c3        1 MOL     -0.029635
    179 H86        -5.4250    4.6650   -2.1930 h1        1 MOL      0.052141
    180 H87        -6.6330    5.7350   -1.4400 h1        1 MOL      0.052141
    181 H88        -4.8990    6.1240   -1.3210 h1        1 MOL      0.052141
    182 H89        -4.5950    4.2240    0.0800 hn        1 MOL      0.261662
    183 Ca1         6.7540    5.0490   -0.0370 Ca        1 MOL      1.464116
    184 O25         6.8730    4.3170   -2.6460 oh        1 MOL     -0.538681
    185 H90         5.9800    4.2730   -2.9920 ho        1 MOL      0.270660
    186 H91         7.4270    4.4940   -3.4080 ho        1 MOL      0.270660
    187 O26         4.4990    5.5520   -1.8210 oh        1 MOL     -0.538681
    188 H92         4.0610    5.7110   -0.9830 ho        1 MOL      0.270660
    189 H93         5.0590    6.3250   -1.9420 ho        1 MOL      0.270660
@<TRIPOS>BOND
     1    1    2 1   
     2    1    4 1   
     3    1    5 1   
     4    1    6 1   
     5    2    3 2   
     6    2    7 1   
     7    7    8 1   
     8    7   15 1   
     9    8    9 1   
    10    8   11 1   
    11    8   16 1   
    12    9   10 2   
    13    9   19 1   
    14   11   12 1   
    15   11   17 1   
    16   11   18 1   
    17   12   13 1   
    18   12   14 1   
    19   19   20 1   
    20   19   28 1   
    21   20   21 1   
    22   20   23 1   
    23   20   29 1   
    24   21   22 2   
    25   21   41 1   
    26   23   24 1   
    27   23   30 1   
    28   23   31 1   
    29   24   25 1   
    30   24   32 1   
    31   24   33 1   
    32   25   26 1   
    33   25   34 1   
    34   25   35 1   
    35   26   27 1   
    36   26   36 1   
    37   26   37 1   
    38   27   38 1   
    39   27   39 1   
    40   27   40 1   
    41   41   42 1   
    42   41   49 1   
    43   42   43 1   
    44   42   45 1   
    45   42   50 1   
    46   43   44 2   
    47   43   53 1   
    48   45   46 1   
    49   45   51 1   
    50   45   52 1   
    51   46   47 1   
    52   46   48 1   
    53   53   54 1   
    54   53   57 1   
    55   54   55 1   
    56   54   58 1   
    57   54   59 1   
    58   55   56 2   
    59   55   60 1   
    60   60   61 1   
    61   60   68 1   
    62   61   62 1   
    63   61   64 1   
    64   61   69 1   
    65   62   63 2   
    66   62   72 1   
    67   64   65 1   
    68   64   70 1   
    69   64   71 1   
    70   65   66 1   
    71   65   67 1   
    72   72   73 1   
    73   72   76 1   
    74   73   74 1   
    75   73   77 1   
    76   73   78 1   
    77   74   75 2   
    78   74   79 1   
    79   79   80 1   
    80   79   86 1   
    81   80   81 1   
    82   80   83 1   
    83   80   87 1   
    84   81   82 2   
    85   81   93 1   
    86   83   84 1   
    87   83   85 1   
    88   83   88 1   
    89   84   90 1   
    90   84   91 1   
    91   84   92 1   
    92   85   89 1   
    93   93   94 1   
    94   93  101 1   
    95   94   95 1   
    96   94   97 1   
    97   94  102 1   
    98   95   96 2   
    99   95  112 1   
   100   97   98 1   
   101   97   99 1   
   102   97  103 1   
   103   98  100 1   
   104   98  104 1   
   105   98  105 1   
   106   99  106 1   
   107   99  107 1   
   108   99  108 1   
   109  100  109 1   
   110  100  110 1   
   111  100  111 1   
   112  112  113 1   
   113  112  119 1   
   114  113  114 1   
   115  113  116 1   
   116  113  120 1   
   117  114  115 2   
   118  114  126 1   
   119  116  117 1   
   120  116  118 1   
   121  116  121 1   
   122  117  123 1   
   123  117  124 1   
   124  117  125 1   
   125  118  122 1   
   126  126  127 1   
   127  126  133 1   
   128  127  128 1   
   129  127  130 1   
   130  127  134 1   
   131  128  129 2   
   132  128  140 1   
   133  130  131 1   
   134  130  132 1   
   135  130  135 1   
   136  131  137 1   
   137  131  138 1   
   138  131  139 1   
   139  132  136 1   
   140  140  141 1   
   141  140  149 1   
   142  141  142 1   
   143  141  144 1   
   144  141  150 1   
   145  142  143 2   
   146  142  162 1   
   147  144  145 1   
   148  144  151 1   
   149  144  152 1   
   150  145  146 1   
   151  145  153 1   
   152  145  154 1   
   153  146  147 1   
   154  146  155 1   
   155  146  156 1   
   156  147  148 1   
   157  147  157 1   
   158  147  158 1   
   159  148  159 1   
   160  148  160 1   
   161  148  161 1   
   162  162  163 1   
   163  162  171 1   
   164  163  164 1   
   165  163  166 1   
   166  163  172 1   
   167  164  165 2   
   168  164  177 1   
   169  166  167 1   
   170  166  173 1   
   171  166  174 1   
   172  167  168 1   
   173  167  175 1   
   174  167  176 1   
   175  168  169 1   
   176  168  170 1   
   177  177  178 1   
   178  177  182 1   
   179  178  179 1   
   180  178  180 1   
   181  178  181 1   
   182  184  185 1   
   183  184  186 1   
   184  187  188 1   
   185  187  189 1   
@<TRIPOS>SUBSTRUCTURE
     1 MOL         1 TEMP              0 ****  ****    0 ROOT
