@<TRIPOS>MOLECULE
MOL
  192   187     1     0     0
SMALL
resp


@<TRIPOS>ATOM
      1 C1          4.3400    4.7500   -2.8360 c3        1 MOL     -0.406111
      2 C2          5.1360    3.9270   -1.7970 c         1 MOL      0.849640
      3 O1          4.6030    3.5460   -0.7610 o         1 MOL     -0.626333
      4 H1          3.9070    4.0780   -3.5770 hc        1 MOL      0.100257
      5 H2          3.5440    5.2990   -2.3330 hc        1 MOL      0.100257
      6 H3          5.0090    5.4540   -3.3320 hc        1 MOL      0.100257
      7 N1          6.4230    3.6240   -2.1100 n         1 MOL     -0.787736
      8 C3          7.1640    2.4770   -1.6170 c3        1 MOL      0.466576
      9 C4          6.2400    1.1820   -1.5020 c         1 MOL      0.260728
     10 O2          5.6690    0.7120   -0.4490 o         1 MOL     -0.557899
     11 C5          7.8820    2.6890   -0.2720 c3        1 MOL     -0.169684
     12 C6          7.1690    3.7770    0.6580 c         1 MOL      0.711958
     13 O3          6.3480    3.4180    1.5870 o         1 MOL     -0.713561
     14 O4          7.5630    4.9870    0.6240 o         1 MOL     -0.713561
     15 H4          6.8570    4.1810   -2.8420 hn        1 MOL      0.340659
     16 H5          7.9460    2.2110   -2.3300 h1        1 MOL     -0.022461
     17 H6          8.8370    3.1460   -0.5390 hc        1 MOL      0.015588
     18 H7          7.8820    1.6950    0.1920 hc        1 MOL      0.015588
     19 N2          5.8910    0.6350   -2.7230 n         1 MOL     -0.393076
     20 C7          5.1720   -0.5840   -3.0760 c3        1 MOL      0.064392
     21 C8          5.7430   -1.8890   -2.4700 c         1 MOL      0.357568
     22 O5          6.0170   -2.7980   -3.2420 o         1 MOL     -0.542691
     23 C9          3.6260   -0.5140   -2.7420 c3        1 MOL      0.618744
     24 C10         2.8180   -1.7220   -3.4240 c3        1 MOL     -0.437542
     25 C11         3.1070    0.8070   -3.2380 c3        1 MOL     -0.030129
     26 C12         2.9230   -1.8140   -4.9500 c3        1 MOL     -0.107166
     27 H8          6.1290    1.2480   -3.4930 hn        1 MOL      0.232311
     28 H9          5.3170   -0.6900   -4.1580 h1        1 MOL      0.044401
     29 H10         3.4750   -0.6080   -1.6660 hc        1 MOL     -0.282306
     30 H11         1.7710   -1.5040   -3.2110 hc        1 MOL      0.176306
     31 H12         3.1320   -2.6260   -2.9190 hc        1 MOL      0.176306
     32 H13         3.6630    0.9240   -4.1650 hc        1 MOL     -0.033968
     33 H14         2.0230    0.7220   -3.2850 hc        1 MOL     -0.033968
     34 H15         3.4970    1.6180   -2.6110 hc        1 MOL     -0.033968
     35 H16         2.6300   -0.8530   -5.3860 hc        1 MOL      0.018967
     36 H17         3.9300   -2.0370   -5.3080 hc        1 MOL      0.018967
     37 H18         2.2260   -2.5310   -5.3860 hc        1 MOL      0.018967
     38 N3          5.9950   -2.0230   -1.1330 n         1 MOL     -0.067671
     39 C13         6.5720   -3.1690   -0.4810 c3        1 MOL     -0.042860
     40 C14         5.8060   -4.4840   -0.5860 c         1 MOL      0.543336
     41 O6          6.3910   -5.4720   -1.0100 o         1 MOL     -0.577386
     42 C15         6.9120   -2.8700    1.0240 c3        1 MOL     -0.188286
     43 C16         7.6540   -1.4770    1.2220 c         1 MOL      0.672207
     44 O7          7.6260   -0.9060    2.3500 o         1 MOL     -0.664817
     45 O8          8.4350   -1.1260    0.2620 o         1 MOL     -0.664817
     46 H19         5.6830   -1.2580   -0.5630 hn        1 MOL      0.189461
     47 H20         7.5890   -3.2510   -0.8880 h1        1 MOL      0.059678
     48 H21         7.5640   -3.6510    1.3880 hc        1 MOL      0.053779
     49 H22         6.0750   -2.9220    1.7190 hc        1 MOL      0.053779
     50 N4          4.5270   -4.5930   -0.2080 n         1 MOL     -0.523429
     51 C17         3.5660   -3.6340    0.2460 c3        1 MOL      0.457507
     52 C18         2.4710   -4.2510    1.0340 c         1 MOL      0.275357
     53 O9          2.1410   -5.4060    0.8040 o         1 MOL     -0.565936
     54 H23         4.1110   -5.5110   -0.2080 hn        1 MOL      0.274060
     55 H24         2.9900   -3.1840   -0.5650 h1        1 MOL     -0.073176
     56 H25         4.0270   -2.9060    0.9130 h1        1 MOL     -0.073176
     57 N5          1.8910   -3.5780    1.9960 n         1 MOL     -0.059225
     58 C19         2.1560   -2.2510    2.6130 c3        1 MOL     -0.038655
     59 C20         2.3650   -1.0210    1.6440 c         1 MOL      0.040287
     60 O10         3.4510   -0.5180    1.3630 o         1 MOL     -0.313821
     61 C21         3.1730   -2.4540    3.7580 c3        1 MOL     -0.505124
     62 C22         3.3240   -1.2940    4.7330 c         1 MOL      0.964950
     63 O11         4.3560   -1.0210    5.2890 o         1 MOL     -0.755431
     64 O12         2.2670   -0.6680    5.0560 o         1 MOL     -0.755431
     65 H26         1.1300   -4.1720    2.2980 hn        1 MOL      0.146595
     66 H27         1.1700   -2.0620    3.0460 h1        1 MOL      0.098169
     67 H28         4.1400   -2.7040    3.3380 hc        1 MOL      0.122284
     68 H29         2.7900   -3.2790    4.3640 hc        1 MOL      0.122284
     69 N6          1.3560   -0.6290    0.8870 n         1 MOL      0.083124
     70 C23         0.0160   -1.1560    0.8530 c3        1 MOL     -0.104839
     71 C24        -0.0570   -2.4240    0.0610 c         1 MOL      0.368936
     72 O13         0.5250   -2.5750   -0.9760 o         1 MOL     -0.392650
     73 H30         1.5320    0.2200    0.3600 hn        1 MOL      0.159836
     74 H31        -0.6300   -0.4510    0.3290 h1        1 MOL      0.034561
     75 H32        -0.2830   -1.2740    1.8860 h1        1 MOL      0.034561
     76 N7         -0.8360   -3.3860    0.6670 n         1 MOL     -0.625118
     77 C25        -1.1660   -4.6900    0.0370 c3        1 MOL     -0.038372
     78 C26        -2.0060   -4.6400   -1.2450 c         1 MOL      0.467685
     79 O14        -2.2350   -5.6470   -1.8720 o         1 MOL     -0.477703
     80 C27        -1.9640   -5.5250    1.1300 c3        1 MOL      0.028014
     81 C28        -1.0970   -6.2230    2.2670 c3        1 MOL     -0.133906
     82 C29        -1.8690   -6.9380    3.3680 c         1 MOL      0.707690
     83 N8         -1.1940   -7.2880    4.4150 n         1 MOL     -0.813527
     84 O15        -3.0760   -6.9910    3.3970 o         1 MOL     -0.584058
     85 H33        -1.1680   -3.1500    1.5860 hn        1 MOL      0.387485
     86 H34        -0.2940   -5.3350   -0.0910 h1        1 MOL      0.187455
     87 H35        -2.6170   -6.2410    0.6300 hc        1 MOL     -0.009997
     88 H36        -2.5620   -4.8310    1.7230 hc        1 MOL     -0.009997
     89 H37        -0.5290   -5.4540    2.7920 hc        1 MOL      0.048230
     90 H38        -0.3860   -6.9450    1.8600 hc        1 MOL      0.048230
     91 H39        -0.1880   -7.1980    4.3700 hn        1 MOL      0.366072
     92 H40        -1.6670   -7.6050    5.2500 hn        1 MOL      0.366072
     93 N9         -2.3970   -3.3860   -1.6440 n         1 MOL     -0.341240
     94 C30        -3.1020   -3.1890   -2.9370 c3        1 MOL     -0.067768
     95 C31        -4.6010   -2.9730   -2.8600 c         1 MOL      0.458543
     96 O16        -5.3630   -3.2650   -3.7920 o         1 MOL     -0.508960
     97 C32        -2.4560   -2.1510   -3.9600 c3        1 MOL      0.080761
     98 C33        -1.1520   -2.6950   -4.6390 c3        1 MOL     -0.234339
     99 C34        -2.2610   -0.8570   -3.1800 c3        1 MOL     -0.234339
    100 H41        -2.3310   -2.5520   -1.0620 hn        1 MOL      0.288585
    101 H42        -2.9890   -4.1390   -3.4580 h1        1 MOL      0.111525
    102 H43        -3.1510   -1.9180   -4.7680 hc        1 MOL      0.020332
    103 H44        -0.3780   -2.9390   -3.9160 hc        1 MOL      0.070903
    104 H45        -1.4450   -3.5920   -5.1710 hc        1 MOL      0.070903
    105 H46        -0.7920   -1.9860   -5.3880 hc        1 MOL      0.070903
    106 H47        -3.1090   -0.6880   -2.5050 hc        1 MOL      0.070903
    107 H48        -1.3970   -0.9720   -2.5180 hc        1 MOL      0.070903
    108 H49        -1.9190   -0.0400   -3.8160 hc        1 MOL      0.070903
    109 N10        -5.0830   -2.4070   -1.7630 n         1 MOL     -0.304709
    110 C35        -6.5510   -2.0370   -1.5120 c3        1 MOL      0.062492
    111 C36        -6.8670   -0.5800   -0.9800 c         1 MOL      0.397733
    112 O17        -8.0420   -0.2200   -1.0590 o         1 MOL     -0.466217
    113 C37        -7.0770   -3.1850   -0.6090 c3        1 MOL     -0.371699
    114 C38        -6.8520   -4.5370   -1.2170 c         1 MOL      0.587174
    115 N11        -5.9970   -5.3880   -0.7140 n         1 MOL     -0.684241
    116 O18        -7.5470   -4.8200   -2.1670 o         1 MOL     -0.516847
    117 H50        -4.4240   -2.2480   -1.0050 hn        1 MOL      0.206824
    118 H51        -7.0650   -2.2060   -2.4560 h1        1 MOL      0.122735
    119 H52        -8.1610   -3.1330   -0.5170 hc        1 MOL      0.127860
    120 H53        -6.5070   -3.0580    0.3180 hc        1 MOL      0.127860
    121 H54        -5.4820   -5.1560    0.1180 hn        1 MOL      0.341164
    122 H55        -6.0140   -6.2970   -1.1460 hn        1 MOL      0.341164
    123 N12        -5.8990    0.2490   -0.5520 n         1 MOL     -0.346180
    124 C39        -6.1000    1.6310    0.0290 c3        1 MOL      0.093572
    125 C40        -4.7860    2.3880    0.0990 c         1 MOL      0.317570
    126 O19        -3.6690    1.7710    0.1750 o         1 MOL     -0.482714
    127 C41        -6.5120    1.3650    1.4920 c3        1 MOL     -0.073674
    128 C42        -7.9300    0.9570    1.5770 ca        1 MOL     -0.053448
    129 C43        -8.8860    1.9630    1.4090 ca        1 MOL     -0.125128
    130 C44        -8.2420   -0.4120    1.8840 ca        1 MOL     -0.125128
    131 C45       -10.2450    1.5640    1.4460 ca        1 MOL     -0.253876
    132 C46        -9.6340   -0.7120    2.0180 ca        1 MOL     -0.253876
    133 C47       -10.5890    0.2360    1.7430 ca        1 MOL      0.362175
    134 O20       -11.9150   -0.1260    1.8980 oh        1 MOL     -0.528774
    135 H56        -4.9530   -0.1220   -0.5140 hn        1 MOL      0.269942
    136 H57        -6.9280    2.2280   -0.3550 h1        1 MOL      0.072017
    137 H58        -6.3970    2.3180    2.0130 hc        1 MOL      0.071191
    138 H59        -5.8100    0.6510    1.9170 hc        1 MOL      0.071191
    139 H60        -8.5610    2.9860    1.2930 ha        1 MOL      0.141134
    140 H61        -7.4940   -1.1430    2.1410 ha        1 MOL      0.141134
    141 H62       -11.0130    2.3120    1.3420 ha        1 MOL      0.133565
    142 H63       -10.0000   -1.6880    2.2810 ha        1 MOL      0.133565
    143 H64       -12.5020    0.5700    1.6270 ho        1 MOL      0.365322
    144 N13        -4.9110    3.7000    0.2420 n         1 MOL     -0.487458
    145 C48        -4.0210    4.8330    0.5870 c3        1 MOL      0.097182
    146 C49        -2.8210    5.1180   -0.2410 c         1 MOL      0.397361
    147 O21        -2.4830    6.2900   -0.3240 o         1 MOL     -0.501729
    148 C50        -3.7120    4.6340    2.0620 c3        1 MOL      0.084771
    149 C51        -3.2210    5.8690    2.8320 c3        1 MOL     -0.233692
    150 C52        -4.2930    6.9400    2.9880 c         1 MOL      0.759517
    151 O22        -3.9950    8.1030    2.5740 o         1 MOL     -0.754366
    152 O23        -5.3300    6.6870    3.5760 o         1 MOL     -0.754366
    153 H65        -5.8790    4.0000    0.2800 hn        1 MOL      0.317563
    154 H66        -4.5840    5.7610    0.6090 h1        1 MOL      0.068809
    155 H67        -2.8190    3.9950    2.0840 hc        1 MOL     -0.012847
    156 H68        -4.5290    4.1750    2.6030 hc        1 MOL     -0.012847
    157 H69        -2.4060    6.3590    2.2820 hc        1 MOL      0.039877
    158 H70        -2.6330    5.5970    3.7090 hc        1 MOL      0.039877
    159 N14        -2.2160    4.1140   -0.8580 n         1 MOL     -0.151016
    160 C53        -1.1960    4.2600   -1.9120 c3        1 MOL     -0.317258
    161 C54        -1.7300    4.8920   -3.2270 c         1 MOL      0.598014
    162 O24        -0.9860    5.4310   -4.0350 o         1 MOL     -0.554637
    163 C55        -0.6290    2.8880   -2.1790 c3        1 MOL      0.127611
    164 C56        -0.0280    2.1060   -0.9500 c3        1 MOL      0.205488
    165 C57         1.0840    2.7610   -0.1740 c         1 MOL      0.648106
    166 O25         2.1120    2.1120    0.0390 o         1 MOL     -0.651070
    167 O26         0.9180    3.8100    0.4490 o         1 MOL     -0.651070
    168 H71        -2.6360    3.2120   -0.6810 hn        1 MOL      0.240558
    169 H72        -0.3270    4.8880   -1.7140 h1        1 MOL      0.176864
    170 H73         0.2080    2.9200   -2.8740 hc        1 MOL     -0.049551
    171 H74        -1.4150    2.3360   -2.6870 hc        1 MOL     -0.049551
    172 H75         0.3580    1.1730   -1.3480 hc        1 MOL     -0.100479
    173 H76        -0.7650    1.7990   -0.2080 hc        1 MOL     -0.100479
    174 N15        -3.0650    4.8890   -3.3990 n         1 MOL     -0.279544
    175 C58        -3.7770    5.5610   -4.4980 c3        1 MOL     -0.249097
    176 H77        -4.1560    4.8140   -5.1950 h1        1 MOL      0.107140
    177 H78        -4.6100    6.1360   -4.0940 h1        1 MOL      0.107140
    178 H79        -3.0920    6.2300   -5.0190 h1        1 MOL      0.107140
    179 H80        -3.6500    4.5870   -2.6370 hn        1 MOL      0.202957
    180 Ca1         4.1270    2.1810    1.4700 Ca        1 MOL      1.735809
    181 O27         1.9600    1.6870    3.0240 oh        1 MOL     -0.819758
    182 H81         1.6640    1.1170    3.7290 ho        1 MOL      0.391295
    183 H82         1.3780    2.4450    3.0650 ho        1 MOL      0.391295
    184 O28         4.1100    3.4790    4.2280 oh        1 MOL     -0.819758
    185 H83         4.0360    2.9010    4.9860 ho        1 MOL      0.391295
    186 H84         3.6010    4.2500    4.4580 ho        1 MOL      0.391295
    187 O29         3.0210    4.6010    1.7240 oh        1 MOL     -0.819758
    188 H85         2.6030    4.9640    2.5060 ho        1 MOL      0.391295
    189 H86         2.3750    4.7300    1.0240 ho        1 MOL      0.391295
    190 O30         5.4580    0.5390    3.2770 oh        1 MOL     -0.819758
    191 H87         6.2520    0.0170    3.1540 ho        1 MOL      0.391295
    192 H88         5.0870    0.2290    4.1050 ho        1 MOL      0.391295
@<TRIPOS>BOND
     1    1    2 1   
     2    1    4 1   
     3    1    5 1   
     4    1    6 1   
     5    2    3 2   
     6    2    7 1   
     7    7    8 1   
     8    7   15 1   
     9    8    9 1   
    10    8   11 1   
    11    8   16 1   
    12    9   10 2   
    13    9   19 1   
    14   11   12 1   
    15   11   17 1   
    16   11   18 1   
    17   12   13 1   
    18   12   14 1   
    19   19   20 1   
    20   19   27 1   
    21   20   21 1   
    22   20   23 1   
    23   20   28 1   
    24   21   22 2   
    25   21   38 1   
    26   23   24 1   
    27   23   25 1   
    28   23   29 1   
    29   24   26 1   
    30   24   30 1   
    31   24   31 1   
    32   25   32 1   
    33   25   33 1   
    34   25   34 1   
    35   26   35 1   
    36   26   36 1   
    37   26   37 1   
    38   38   39 1   
    39   38   46 1   
    40   39   40 1   
    41   39   42 1   
    42   39   47 1   
    43   40   41 2   
    44   40   50 1   
    45   42   43 1   
    46   42   48 1   
    47   42   49 1   
    48   43   44 1   
    49   43   45 1   
    50   50   51 1   
    51   50   54 1   
    52   51   52 1   
    53   51   55 1   
    54   51   56 1   
    55   52   53 2   
    56   52   57 1   
    57   57   58 1   
    58   57   65 1   
    59   58   59 1   
    60   58   61 1   
    61   58   66 1   
    62   59   60 2   
    63   59   69 1   
    64   61   62 1   
    65   61   67 1   
    66   61   68 1   
    67   62   63 1   
    68   62   64 1   
    69   69   70 1   
    70   69   73 1   
    71   70   71 1   
    72   70   74 1   
    73   70   75 1   
    74   71   72 2   
    75   71   76 1   
    76   76   77 1   
    77   76   85 1   
    78   77   78 1   
    79   77   80 1   
    80   77   86 1   
    81   78   79 2   
    82   78   93 1   
    83   80   81 1   
    84   80   87 1   
    85   80   88 1   
    86   81   82 1   
    87   81   89 1   
    88   81   90 1   
    89   82   83 1   
    90   82   84 2   
    91   83   91 1   
    92   83   92 1   
    93   93   94 1   
    94   93  100 1   
    95   94   95 1   
    96   94   97 1   
    97   94  101 1   
    98   95   96 2   
    99   95  109 1   
   100   97   98 1   
   101   97   99 1   
   102   97  102 1   
   103   98  103 1   
   104   98  104 1   
   105   98  105 1   
   106   99  106 1   
   107   99  107 1   
   108   99  108 1   
   109  109  110 1   
   110  109  117 1   
   111  110  111 1   
   112  110  113 1   
   113  110  118 1   
   114  111  112 2   
   115  111  123 1   
   116  113  114 1   
   117  113  119 1   
   118  113  120 1   
   119  114  115 1   
   120  114  116 2   
   121  115  121 1   
   122  115  122 1   
   123  123  124 1   
   124  123  135 1   
   125  124  125 1   
   126  124  127 1   
   127  124  136 1   
   128  125  126 2   
   129  125  144 1   
   130  127  128 1   
   131  127  137 1   
   132  127  138 1   
   133  128  129 ar  
   134  128  130 ar  
   135  129  131 ar  
   136  129  139 1   
   137  130  132 ar  
   138  130  140 1   
   139  131  133 ar  
   140  131  141 1   
   141  132  133 ar  
   142  132  142 1   
   143  133  134 1   
   144  134  143 1   
   145  144  145 1   
   146  144  153 1   
   147  145  146 1   
   148  145  148 1   
   149  145  154 1   
   150  146  147 2   
   151  146  159 1   
   152  148  149 1   
   153  148  155 1   
   154  148  156 1   
   155  149  150 1   
   156  149  157 1   
   157  149  158 1   
   158  150  151 1   
   159  150  152 1   
   160  159  160 1   
   161  159  168 1   
   162  160  161 1   
   163  160  163 1   
   164  160  169 1   
   165  161  162 2   
   166  161  174 1   
   167  163  164 1   
   168  163  170 1   
   169  163  171 1   
   170  164  165 1   
   171  164  172 1   
   172  164  173 1   
   173  165  166 1   
   174  165  167 1   
   175  174  175 1   
   176  174  179 1   
   177  175  176 1   
   178  175  177 1   
   179  175  178 1   
   180  181  182 1   
   181  181  183 1   
   182  184  185 1   
   183  184  186 1   
   184  187  188 1   
   185  187  189 1   
   186  190  191 1   
   187  190  192 1   
@<TRIPOS>SUBSTRUCTURE
     1 MOL         1 TEMP              0 ****  ****    0 ROOT
