@<TRIPOS>MOLECULE
MOL
  189   185     1     0     0
SMALL
resp


@<TRIPOS>ATOM
      1 C1         11.9710    5.9080   -2.4150 c3        1 MOL     -0.279616
      2 C2         11.8360    4.7060   -1.4240 c         1 MOL      0.453478
      3 O1         12.7540    3.8580   -1.3710 o         1 MOL     -0.538129
      4 H1         11.0200    6.4360   -2.4780 hc        1 MOL      0.086954
      5 H2         12.7420    6.5900   -2.0570 hc        1 MOL      0.086954
      6 H3         12.2450    5.5360   -3.4030 hc        1 MOL      0.086954
      7 N1         10.7880    4.6180   -0.5900 n         1 MOL     -0.135411
      8 C3         10.5230    3.5190    0.3300 c3        1 MOL     -0.025636
      9 C4          9.2170    2.7400   -0.0130 c         1 MOL      0.208047
     10 O2          8.2460    3.4460   -0.1070 o         1 MOL     -0.577156
     11 C5         10.3940    4.0190    1.7720 c3        1 MOL     -0.182108
     12 C6          9.6400    5.2980    1.9350 c         1 MOL      0.878667
     13 O3          8.4140    5.2950    2.1450 o         1 MOL     -0.823084
     14 O4         10.1920    6.3410    1.6560 o         1 MOL     -0.823084
     15 H4         10.0780    5.3220   -0.7490 hn        1 MOL      0.221737
     16 H5         11.2660    2.7220    0.3560 h1        1 MOL      0.065980
     17 H6         11.4180    4.2140    2.0740 hc        1 MOL      0.094087
     18 H7         10.0080    3.2440    2.4260 hc        1 MOL      0.094087
     19 N2          9.1180    1.3960   -0.1420 n         1 MOL     -0.047427
     20 C7          7.9730    0.7270   -0.7180 c3        1 MOL     -0.280271
     21 C8          6.9260    0.3410    0.3570 c         1 MOL      0.868364
     22 O5          7.3080   -0.2440    1.3550 o         1 MOL     -0.575377
     23 C9          8.6020   -0.4280   -1.4670 c3        1 MOL     -0.130722
     24 C10         7.6050   -1.1290   -2.4290 c3        1 MOL     -0.013981
     25 C11         8.0900   -2.4940   -2.9010 c3        1 MOL      0.219293
     26 C12         7.0210   -3.1970   -3.6480 c3        1 MOL      0.044872
     27 N3          7.2650   -4.6340   -3.5480 n4        1 MOL     -0.403415
     28 H8          9.9480    0.8560    0.0710 hn        1 MOL      0.232566
     29 H9          7.4750    1.4020   -1.4030 h1        1 MOL      0.127618
     30 H10         9.0020   -1.1150   -0.7220 hc        1 MOL      0.063429
     31 H11         9.5090   -0.0800   -1.9590 hc        1 MOL      0.063429
     32 H12         7.4120   -0.5010   -3.3020 hc        1 MOL      0.008482
     33 H13         6.6880   -1.3250   -1.8670 hc        1 MOL      0.008482
     34 H14         8.4350   -3.1280   -2.0800 hc        1 MOL     -0.032917
     35 H15         8.9260   -2.2830   -3.5560 hc        1 MOL     -0.032917
     36 H16         6.9190   -2.8270   -4.6760 hx        1 MOL      0.064827
     37 H17         6.1150   -3.1550   -3.0460 hx        1 MOL      0.064827
     38 H18         6.5000   -5.1450   -3.9720 hn        1 MOL      0.344444
     39 H19         8.1680   -4.8810   -3.9240 hn        1 MOL      0.344444
     40 H20         7.1800   -4.9150   -2.5790 hn        1 MOL      0.344444
     41 N4          5.6850    0.7480    0.1730 n         1 MOL     -0.894396
     42 C13         4.6650    0.3960    1.2020 c3        1 MOL      0.964335
     43 C14         3.3780   -0.1520    0.4970 c         1 MOL      0.076149
     44 O6          2.8980    0.3350   -0.5470 o         1 MOL     -0.420698
     45 C15         4.2630    1.6780    1.9580 c3        1 MOL      0.008083
     46 C16         5.3160    2.4340    2.6850 c         1 MOL      0.490971
     47 O7          5.8280    3.4360    2.1090 o         1 MOL     -0.641060
     48 O8          5.5170    2.0460    3.9120 o         1 MOL     -0.641060
     49 H21         5.4620    1.2640   -0.6720 hn        1 MOL      0.288781
     50 H22         5.0100   -0.3600    1.9130 h1        1 MOL     -0.105683
     51 H23         3.5390    1.3400    2.6930 hc        1 MOL     -0.065066
     52 H24         3.8760    2.3970    1.2290 hc        1 MOL     -0.065066
     53 N5          2.6810   -1.1120    1.1660 n         1 MOL     -0.445239
     54 C17         3.0850   -1.9360    2.3590 c3        1 MOL     -0.152399
     55 C18         3.7870   -3.2300    1.9580 c         1 MOL      0.644882
     56 O9          4.4010   -3.2900    0.9110 o         1 MOL     -0.589877
     57 H25         1.7820   -1.2580    0.7400 hn        1 MOL      0.366403
     58 H26         2.2810   -2.1280    3.0830 h1        1 MOL      0.124018
     59 H27         3.8420   -1.4350    2.9510 h1        1 MOL      0.124018
     60 N6          3.7590   -4.3120    2.7190 n         1 MOL     -0.456931
     61 C19         4.2920   -5.6650    2.4560 c3        1 MOL      0.149028
     62 C20         3.4940   -6.2510    1.3000 c         1 MOL      0.423181
     63 O10         4.0750   -6.4640    0.2480 o         1 MOL     -0.595044
     64 C21         4.5590   -6.4890    3.7130 c3        1 MOL     -0.395337
     65 C22         3.4620   -6.9260    4.5290 c         1 MOL      0.756177
     66 O11         2.2750   -6.5630    4.2590 o         1 MOL     -0.698563
     67 O12         3.7320   -7.7150    5.4760 o         1 MOL     -0.698563
     68 H28         3.2650   -4.2180    3.5940 hn        1 MOL      0.248274
     69 H29         5.2390   -5.4330    1.9570 h1        1 MOL      0.040710
     70 H30         5.1790   -5.8350    4.3300 hc        1 MOL      0.113000
     71 H31         5.0850   -7.4000    3.4660 hc        1 MOL      0.113000
     72 N7          2.1990   -6.5240    1.4580 n         1 MOL      0.013370
     73 C23         1.2210   -7.2200    0.5910 c3        1 MOL     -0.243932
     74 C24         0.6540   -6.2970   -0.5540 c         1 MOL      0.625566
     75 O13        -0.0420   -6.8820   -1.3580 o         1 MOL     -0.539708
     76 H32         1.9740   -6.3410    2.4320 hn        1 MOL      0.089188
     77 H33         0.3980   -7.4950    1.2470 h1        1 MOL      0.114055
     78 H34         1.7330   -8.1150    0.2390 h1        1 MOL      0.114055
     79 N8          0.9270   -4.9570   -0.5500 n         1 MOL     -0.390118
     80 C25         0.5750   -4.1060   -1.7420 c3        1 MOL      0.007709
     81 C26         0.1320   -2.6740   -1.3180 c         1 MOL      0.316182
     82 O14         0.4410   -2.3370   -0.1980 o         1 MOL     -0.444242
     83 C27         1.6750   -3.9570   -2.7880 c3        1 MOL      0.241343
     84 C28         3.0180   -3.4150   -2.1200 c3        1 MOL     -0.072604
     85 O15         1.9180   -5.0980   -3.4810 oh        1 MOL     -0.622812
     86 H35         1.3600   -4.4930    0.2260 hn        1 MOL      0.183461
     87 H36        -0.2790   -4.5720   -2.2340 h1        1 MOL      0.037201
     88 H37         1.3190   -3.2400   -3.5210 h1        1 MOL     -0.004106
     89 H38         1.1270   -5.4520   -3.8940 ho        1 MOL      0.407759
     90 H39         3.8190   -3.3020   -2.8620 hc        1 MOL      0.032887
     91 H40         2.8840   -2.4590   -1.6140 hc        1 MOL      0.032887
     92 H41         3.3690   -4.0710   -1.3170 hc        1 MOL      0.032887
     93 N9         -0.5400   -1.8970   -2.1370 n         1 MOL     -0.099797
     94 C29        -1.0390   -0.5520   -1.9010 c3        1 MOL     -0.074288
     95 C30        -2.3370   -0.5720   -1.0280 c         1 MOL      0.566406
     96 O16        -2.4300    0.2060   -0.0760 o         1 MOL     -0.533124
     97 C31        -1.1810    0.2520   -3.2010 c3        1 MOL      0.195039
     98 C32         0.0340    0.1240   -4.2450 c3        1 MOL     -0.155157
     99 C33        -1.4520    1.6760   -2.7410 c3        1 MOL     -0.353406
    100 C34         1.4200    0.5240   -3.6320 c3        1 MOL     -0.218155
    101 H42        -0.7620   -2.3510   -3.0110 hn        1 MOL      0.180635
    102 H43        -0.2960   -0.0350   -1.2850 h1        1 MOL      0.090096
    103 H44        -2.0520   -0.1620   -3.7130 hc        1 MOL     -0.025337
    104 H45        -0.2240    0.8170   -5.0420 hc        1 MOL      0.054650
    105 H46         0.2230   -0.8900   -4.6000 hc        1 MOL      0.054650
    106 H47        -1.4770    2.3590   -3.5890 hc        1 MOL      0.106080
    107 H48        -2.3760    1.8740   -2.2010 hc        1 MOL      0.106080
    108 H49        -0.5500    1.9460   -2.1750 hc        1 MOL      0.106080
    109 H50         1.5320   -0.1770   -2.8140 hc        1 MOL      0.048506
    110 H51         2.2010    0.4580   -4.3930 hc        1 MOL      0.048506
    111 H52         1.4230    1.5590   -3.2830 hc        1 MOL      0.048506
    112 N10        -3.2470   -1.5100   -1.3000 n         1 MOL     -0.538433
    113 C35        -4.3250   -1.9330   -0.3350 c3        1 MOL     -0.043599
    114 C36        -5.6300   -2.2290   -1.1700 c         1 MOL      0.710134
    115 O17        -5.5980   -2.8790   -2.2150 o         1 MOL     -0.518927
    116 C37        -3.9520   -3.0560    0.5660 c3        1 MOL      0.396010
    117 C38        -5.0160   -3.4010    1.6500 c3        1 MOL     -0.455623
    118 O18        -3.5980   -4.2400   -0.0690 oh        1 MOL     -0.586134
    119 H53        -3.0990   -2.1070   -2.0980 hn        1 MOL      0.266882
    120 H54        -4.5570   -1.0180    0.2160 h1        1 MOL      0.108968
    121 H55        -3.0840   -2.6350    1.0840 h1        1 MOL      0.015397
    122 H56        -3.0410   -4.6060    0.6190 ho        1 MOL      0.388777
    123 H57        -4.6830   -4.2880    2.1790 hc        1 MOL      0.114137
    124 H58        -5.0960   -2.5410    2.3200 hc        1 MOL      0.114137
    125 H59        -5.9220   -3.5700    1.0580 hc        1 MOL      0.114137
    126 N11        -6.8180   -1.8300   -0.6580 n         1 MOL     -0.650564
    127 C39        -8.1740   -2.2230   -1.2850 c3        1 MOL      0.051461
    128 C40        -9.0770   -0.9490   -1.5660 c         1 MOL      0.606884
    129 O19        -9.4960   -0.7570   -2.6830 o         1 MOL     -0.547659
    130 C41        -8.8830   -3.1330   -0.2510 c3        1 MOL      0.283117
    131 C42       -10.1520   -3.7840   -0.6380 c3        1 MOL     -0.474670
    132 O20        -9.0020   -2.4300    0.9710 oh        1 MOL     -0.547962
    133 H60        -6.8080   -1.3780    0.2390 hn        1 MOL      0.295905
    134 H61        -7.9820   -2.8080   -2.1770 h1        1 MOL      0.093194
    135 H62        -8.1080   -3.8470    0.0050 h1        1 MOL      0.038597
    136 H63        -8.8540   -3.1150    1.6260 ho        1 MOL      0.374379
    137 H64       -10.1680   -4.5290   -1.4460 hc        1 MOL      0.129807
    138 H65       -10.5670   -4.3590    0.1820 hc        1 MOL      0.129807
    139 H66       -10.8550   -3.0220   -0.9890 hc        1 MOL      0.129807
    140 N12        -9.2720   -0.0540   -0.5650 n         1 MOL     -0.385760
    141 C43       -10.0170    1.2360   -0.6510 c3        1 MOL      0.012173
    142 C44        -9.5610    2.3160    0.3580 c         1 MOL      0.443791
    143 O21        -9.0520    2.0450    1.4580 o         1 MOL     -0.520165
    144 C45       -11.5010    1.0230   -0.6150 c3        1 MOL     -0.404514
    145 C46       -11.9600    0.1750    0.5440 c3        1 MOL      0.144649
    146 C47       -13.3400   -0.4350    0.3090 c3        1 MOL      0.011884
    147 C48       -13.7330   -1.0930    1.6470 c3        1 MOL      0.108241
    148 N13       -15.2230   -1.4270    1.7770 n4        1 MOL     -0.242586
    149 H67        -9.0200   -0.3640    0.3650 hn        1 MOL      0.237608
    150 H68        -9.8080    1.7140   -1.6020 h1        1 MOL      0.120223
    151 H69       -11.7670    0.5310   -1.5540 hc        1 MOL      0.144886
    152 H70       -12.0290    1.9630   -0.4810 hc        1 MOL      0.144886
    153 H71       -12.1140    0.8040    1.4140 hc        1 MOL      0.012824
    154 H72       -11.2870   -0.6410    0.8060 hc        1 MOL      0.012824
    155 H73       -13.3330   -1.2070   -0.4580 hc        1 MOL      0.003760
    156 H74       -13.9650    0.3960   -0.0180 hc        1 MOL      0.003760
    157 H75       -13.4760   -0.3790    2.4320 hx        1 MOL      0.036549
    158 H76       -13.1420   -1.9990    1.7490 hx        1 MOL      0.036549
    159 H77       -15.7920   -0.5880    1.7290 hn        1 MOL      0.237344
    160 H78       -15.5280   -2.1000    1.0860 hn        1 MOL      0.237344
    161 H79       -15.4740   -1.9600    2.6040 hn        1 MOL      0.237344
    162 N14        -9.6790    3.5840    0.0720 n         1 MOL     -0.302848
    163 C49        -9.4900    4.7490    0.9670 c3        1 MOL      0.050762
    164 C50        -8.0160    4.8600    1.5080 c         1 MOL      0.404070
    165 O22        -7.7630    5.1180    2.6870 o         1 MOL     -0.517663
    166 C51       -10.0040    5.9910    0.2740 c3        1 MOL      0.068505
    167 C52        -9.9190    7.2340    1.1030 c3        1 MOL     -0.177047
    168 C53       -10.4390    8.3110    0.1730 c         1 MOL      0.672279
    169 O23       -11.6630    8.6080    0.2540 o         1 MOL     -0.646162
    170 O24        -9.6730    8.8120   -0.6600 o         1 MOL     -0.646162
    171 H80       -10.0230    3.7450   -0.8560 hn        1 MOL      0.193644
    172 H81       -10.0640    4.5820    1.8690 h1        1 MOL      0.081514
    173 H82       -11.0540    5.8570    0.0340 hc        1 MOL      0.003846
    174 H83        -9.4330    6.1750   -0.6330 hc        1 MOL      0.003846
    175 H84        -8.8920    7.4020    1.4370 hc        1 MOL      0.035067
    176 H85       -10.5830    7.1100    1.9550 hc        1 MOL      0.035067
    177 N15        -6.9580    4.6920    0.6630 n         1 MOL     -0.269150
    178 C54        -6.8970    4.6440   -0.8140 c3        1 MOL     -0.120030
    179 H86        -7.4440    5.4920   -1.2270 h1        1 MOL      0.073115
    180 H87        -5.8570    4.6900   -1.1370 h1        1 MOL      0.073115
    181 H88        -7.3470    3.7160   -1.1670 h1        1 MOL      0.073115
    182 H89        -6.0600    4.7510    1.1280 hn        1 MOL      0.257483
    183 Ca1         6.3810    5.2930    0.4640 Ca        1 MOL      1.747636
    184 O25         5.4390    4.0090   -1.5520 oh        1 MOL     -0.931292
    185 H90         4.8650    3.2770   -1.7600 ho        1 MOL      0.454689
    186 H91         5.9060    4.1930   -2.3690 ho        1 MOL      0.454689
    187 O26         7.4120    8.0080    1.1210 oh        1 MOL     -0.931292
    188 H92         8.1410    7.6390    1.6210 ho        1 MOL      0.454689
    189 H93         7.3820    8.9280    1.3880 ho        1 MOL      0.454689
@<TRIPOS>BOND
     1    1    2 1   
     2    1    4 1   
     3    1    5 1   
     4    1    6 1   
     5    2    3 2   
     6    2    7 1   
     7    7    8 1   
     8    7   15 1   
     9    8    9 1   
    10    8   11 1   
    11    8   16 1   
    12    9   10 2   
    13    9   19 1   
    14   11   12 1   
    15   11   17 1   
    16   11   18 1   
    17   12   13 1   
    18   12   14 1   
    19   19   20 1   
    20   19   28 1   
    21   20   21 1   
    22   20   23 1   
    23   20   29 1   
    24   21   22 2   
    25   21   41 1   
    26   23   24 1   
    27   23   30 1   
    28   23   31 1   
    29   24   25 1   
    30   24   32 1   
    31   24   33 1   
    32   25   26 1   
    33   25   34 1   
    34   25   35 1   
    35   26   27 1   
    36   26   36 1   
    37   26   37 1   
    38   27   38 1   
    39   27   39 1   
    40   27   40 1   
    41   41   42 1   
    42   41   49 1   
    43   42   43 1   
    44   42   45 1   
    45   42   50 1   
    46   43   44 2   
    47   43   53 1   
    48   45   46 1   
    49   45   51 1   
    50   45   52 1   
    51   46   47 1   
    52   46   48 1   
    53   53   54 1   
    54   53   57 1   
    55   54   55 1   
    56   54   58 1   
    57   54   59 1   
    58   55   56 2   
    59   55   60 1   
    60   60   61 1   
    61   60   68 1   
    62   61   62 1   
    63   61   64 1   
    64   61   69 1   
    65   62   63 2   
    66   62   72 1   
    67   64   65 1   
    68   64   70 1   
    69   64   71 1   
    70   65   66 1   
    71   65   67 1   
    72   72   73 1   
    73   72   76 1   
    74   73   74 1   
    75   73   77 1   
    76   73   78 1   
    77   74   75 2   
    78   74   79 1   
    79   79   80 1   
    80   79   86 1   
    81   80   81 1   
    82   80   83 1   
    83   80   87 1   
    84   81   82 2   
    85   81   93 1   
    86   83   84 1   
    87   83   85 1   
    88   83   88 1   
    89   84   90 1   
    90   84   91 1   
    91   84   92 1   
    92   85   89 1   
    93   93   94 1   
    94   93  101 1   
    95   94   95 1   
    96   94   97 1   
    97   94  102 1   
    98   95   96 2   
    99   95  112 1   
   100   97   98 1   
   101   97   99 1   
   102   97  103 1   
   103   98  100 1   
   104   98  104 1   
   105   98  105 1   
   106   99  106 1   
   107   99  107 1   
   108   99  108 1   
   109  100  109 1   
   110  100  110 1   
   111  100  111 1   
   112  112  113 1   
   113  112  119 1   
   114  113  114 1   
   115  113  116 1   
   116  113  120 1   
   117  114  115 2   
   118  114  126 1   
   119  116  117 1   
   120  116  118 1   
   121  116  121 1   
   122  117  123 1   
   123  117  124 1   
   124  117  125 1   
   125  118  122 1   
   126  126  127 1   
   127  126  133 1   
   128  127  128 1   
   129  127  130 1   
   130  127  134 1   
   131  128  129 2   
   132  128  140 1   
   133  130  131 1   
   134  130  132 1   
   135  130  135 1   
   136  131  137 1   
   137  131  138 1   
   138  131  139 1   
   139  132  136 1   
   140  140  141 1   
   141  140  149 1   
   142  141  142 1   
   143  141  144 1   
   144  141  150 1   
   145  142  143 2   
   146  142  162 1   
   147  144  145 1   
   148  144  151 1   
   149  144  152 1   
   150  145  146 1   
   151  145  153 1   
   152  145  154 1   
   153  146  147 1   
   154  146  155 1   
   155  146  156 1   
   156  147  148 1   
   157  147  157 1   
   158  147  158 1   
   159  148  159 1   
   160  148  160 1   
   161  148  161 1   
   162  162  163 1   
   163  162  171 1   
   164  163  164 1   
   165  163  166 1   
   166  163  172 1   
   167  164  165 2   
   168  164  177 1   
   169  166  167 1   
   170  166  173 1   
   171  166  174 1   
   172  167  168 1   
   173  167  175 1   
   174  167  176 1   
   175  168  169 1   
   176  168  170 1   
   177  177  178 1   
   178  177  182 1   
   179  178  179 1   
   180  178  180 1   
   181  178  181 1   
   182  184  185 1   
   183  184  186 1   
   184  187  188 1   
   185  187  189 1   
@<TRIPOS>SUBSTRUCTURE
     1 MOL         1 TEMP              0 ****  ****    0 ROOT
