@<TRIPOS>MOLECULE
MOL
  189   185     1     0     0
SMALL
resp


@<TRIPOS>ATOM
      1 C1          4.2290    3.5190   -3.6880 c3        1 MOL     -0.445500
      2 C2          5.1350    2.7320   -2.6390 c         1 MOL      0.655655
      3 O1          4.7690    2.4830   -1.5250 o         1 MOL     -0.532485
      4 H1          3.2000    3.1680   -3.6140 hc        1 MOL      0.117433
      5 H2          4.2640    4.5860   -3.4710 hc        1 MOL      0.117433
      6 H3          4.6020    3.3410   -4.6970 hc        1 MOL      0.117433
      7 N1          6.2980    2.2190   -3.0130 n         1 MOL     -0.579869
      8 C3          6.9550    1.0010   -2.4130 c3        1 MOL      0.192451
      9 C4          5.9920   -0.1040   -1.9900 c         1 MOL      0.176899
     10 O2          5.4950   -0.1190   -0.8510 o         1 MOL     -0.391529
     11 C5          8.0940    1.3160   -1.4670 c3        1 MOL     -0.038027
     12 C6          7.7500    2.4360   -0.4860 c         1 MOL      0.803123
     13 O3          7.0610    2.1690    0.5150 o         1 MOL     -0.768036
     14 O4          8.1850    3.5340   -0.8170 o         1 MOL     -0.768036
     15 H4          6.5380    2.4270   -3.9780 hn        1 MOL      0.286606
     16 H5          7.5140    0.5740   -3.2480 h1        1 MOL      0.014538
     17 H6          9.0040    1.5630   -2.0090 hc        1 MOL     -0.007028
     18 H7          8.4000    0.4350   -0.9000 hc        1 MOL     -0.007028
     19 N2          5.4650   -0.8340   -2.9790 n         1 MOL     -0.235566
     20 C7          4.6380   -2.0520   -2.8310 c3        1 MOL      0.030043
     21 C8          5.1510   -3.2300   -1.9080 c         1 MOL      0.314757
     22 O5          5.4200   -4.2900   -2.4570 o         1 MOL     -0.526120
     23 C9          3.1030   -1.6500   -2.5970 c3        1 MOL      0.087042
     24 C10         2.2050   -2.5580   -3.5010 c3        1 MOL      0.005172
     25 C11         2.7100   -0.1960   -2.8760 c3        1 MOL     -0.048067
     26 C12         2.5580   -4.0610   -3.4190 c3        1 MOL     -0.120739
     27 H8          5.8320   -0.6660   -3.9110 hn        1 MOL      0.212934
     28 H9          4.5780   -2.4830   -3.8320 h1        1 MOL      0.045638
     29 H10         2.9050   -1.7840   -1.5320 hc        1 MOL     -0.043006
     30 H11         2.2450   -2.2520   -4.5360 hc        1 MOL      0.002203
     31 H12         1.1870   -2.4830   -3.1260 hc        1 MOL      0.002203
     32 H13         3.0880    0.5180   -2.1520 hc        1 MOL     -0.015786
     33 H14         2.9190    0.0060   -3.9200 hc        1 MOL     -0.015786
     34 H15         1.6250   -0.1390   -2.7410 hc        1 MOL     -0.015786
     35 H16         2.5630   -4.2540   -2.3450 hc        1 MOL      0.023850
     36 H17         1.7400   -4.6240   -3.8680 hc        1 MOL      0.023850
     37 H18         3.4660   -4.2910   -3.9860 hc        1 MOL      0.023850
     38 N3          5.2830   -2.9640   -0.5910 n         1 MOL     -0.140027
     39 C13         6.1270   -3.8400    0.2380 c3        1 MOL      0.218422
     40 C14         5.3220   -5.0410    0.6710 c         1 MOL      0.495396
     41 O6          5.9750   -6.0930    0.5350 o         1 MOL     -0.592920
     42 C15         6.9080   -3.0430    1.3010 c3        1 MOL     -0.425228
     43 C16         7.8570   -1.9630    0.8800 c         1 MOL      0.822338
     44 O7          8.5370   -2.1180   -0.2220 o         1 MOL     -0.723813
     45 O8          8.0870   -1.0200    1.6430 o         1 MOL     -0.723813
     46 H19         5.0480   -2.0020   -0.3850 hn        1 MOL      0.339009
     47 H20         6.9510   -4.1560   -0.4050 h1        1 MOL      0.027820
     48 H21         7.4230   -3.7210    1.9860 hc        1 MOL      0.100965
     49 H22         6.2090   -2.5680    1.9780 hc        1 MOL      0.100965
     50 N4          4.0540   -4.9960    1.0310 n         1 MOL     -0.508941
     51 C17         3.3060   -3.8840    1.5450 c3        1 MOL      0.104797
     52 C18         3.8580   -3.2680    2.8880 c         1 MOL      0.446355
     53 O9          4.5730   -3.8790    3.5910 o         1 MOL     -0.531369
     54 H23         3.6240   -5.9120    1.0910 hn        1 MOL      0.288376
     55 H24         2.2880   -4.2380    1.6810 h1        1 MOL      0.063906
     56 H25         3.2860   -3.0690    0.8160 h1        1 MOL      0.063906
     57 N5          3.3050   -2.1610    3.3360 n         1 MOL     -0.328223
     58 C19         2.1510   -1.4490    2.7970 c3        1 MOL     -0.037995
     59 C20         2.3790   -0.8850    1.4140 c         1 MOL     -0.013118
     60 O10         3.4930   -0.5180    1.0370 o         1 MOL     -0.514853
     61 C21         1.7990   -0.3070    3.8300 c3        1 MOL     -0.228798
     62 C22         2.9440    0.6810    4.1470 c         1 MOL      0.750956
     63 O11         3.2080    1.5910    3.3100 o         1 MOL     -0.694466
     64 O12         3.5830    0.5780    5.2150 o         1 MOL     -0.694466
     65 H26         3.7320   -1.8010    4.1780 hn        1 MOL      0.279599
     66 H27         1.3310   -2.1400    2.6230 h1        1 MOL      0.069625
     67 H28         1.4410   -0.7670    4.7450 hc        1 MOL      0.075835
     68 H29         0.8830    0.1570    3.4440 hc        1 MOL      0.075835
     69 N6          1.3540   -0.6570    0.6010 n         1 MOL      0.005268
     70 C23        -0.0510   -0.9870    0.7740 c3        1 MOL     -0.070093
     71 C24        -0.4120   -2.4690    0.7260 c         1 MOL      0.436486
     72 O13         0.3830   -3.3410    0.2500 o         1 MOL     -0.472022
     73 H30         1.5950   -0.0110   -0.1340 hn        1 MOL      0.280650
     74 H31        -0.6060   -0.4780   -0.0180 h1        1 MOL      0.072152
     75 H32        -0.4700   -0.6850    1.7280 h1        1 MOL      0.072152
     76 N7         -1.7260   -2.7550    0.9440 n         1 MOL     -0.330404
     77 C25        -2.3010   -4.0590    0.6700 c3        1 MOL      0.055878
     78 C26        -3.0160   -4.2520   -0.6490 c         1 MOL      0.362200
     79 O14        -3.0900   -5.3160   -1.3070 o         1 MOL     -0.512983
     80 C27        -3.0670   -4.4650    1.9900 c3        1 MOL      0.084087
     81 C28        -4.1590   -3.5390    2.5130 c3        1 MOL     -0.411516
     82 C29        -5.3350   -3.4760    1.5550 c         1 MOL      0.547937
     83 N8         -6.0230   -4.5810    1.3450 n         1 MOL     -0.638899
     84 O15        -5.6000   -2.4260    0.9420 o         1 MOL     -0.510142
     85 H33        -2.2410   -2.0330    1.4350 hn        1 MOL      0.219719
     86 H34        -1.4230   -4.7150    0.6190 h1        1 MOL      0.097674
     87 H35        -2.2750   -4.5640    2.7300 hc        1 MOL     -0.000272
     88 H36        -3.4490   -5.4770    1.8240 hc        1 MOL     -0.000272
     89 H37        -3.6960   -2.5730    2.6900 hc        1 MOL      0.155858
     90 H38        -4.4720   -3.8200    3.5160 hc        1 MOL      0.155858
     91 H39        -5.8420   -5.4330    1.8580 hn        1 MOL      0.328611
     92 H40        -6.6870   -4.6630    0.5940 hn        1 MOL      0.328611
     93 N9         -3.5590   -3.1300   -1.1950 n         1 MOL     -0.181819
     94 C30        -4.0050   -2.9480   -2.6090 c3        1 MOL     -0.158751
     95 C31        -5.4080   -2.2590   -2.8000 c         1 MOL      0.328657
     96 O16        -5.7820   -2.0540   -3.9390 o         1 MOL     -0.514926
     97 C32        -2.9460   -2.1250   -3.4380 c3        1 MOL      0.049137
     98 C33        -1.5740   -2.9090   -3.5530 c3        1 MOL     -0.029908
     99 C34        -2.6600   -0.7480   -2.9050 c3        1 MOL     -0.029908
    100 H41        -3.4750   -2.2540   -0.6880 hn        1 MOL      0.193591
    101 H42        -4.0280   -3.9450   -3.0310 h1        1 MOL      0.138550
    102 H43        -3.3330   -1.9350   -4.4420 hc        1 MOL      0.041150
    103 H44        -0.8710   -2.3340   -4.1530 hc        1 MOL      0.004317
    104 H45        -1.1830   -3.2050   -2.5770 hc        1 MOL      0.004317
    105 H46        -1.6760   -3.8650   -4.0620 hc        1 MOL      0.004317
    106 H47        -2.0990   -0.1430   -3.6210 hc        1 MOL      0.004317
    107 H48        -3.6270   -0.2520   -2.7620 hc        1 MOL      0.004317
    108 H49        -2.1450   -0.7740   -1.9530 hc        1 MOL      0.004317
    109 N10        -5.9710   -1.7090   -1.7060 n         1 MOL     -0.008546
    110 C35        -7.2850   -1.0560   -1.7620 c3        1 MOL      0.036222
    111 C36        -7.2770    0.4490   -1.5510 c         1 MOL      0.465582
    112 O17        -8.2860    1.0740   -1.9110 o         1 MOL     -0.557339
    113 C37        -8.3580   -1.8420   -0.9570 c3        1 MOL      0.072441
    114 C38        -8.3970   -3.3060   -1.3320 c         1 MOL      0.588726
    115 N11        -8.6510   -3.6820   -2.6020 n         1 MOL     -0.815546
    116 O18        -8.0990   -4.1160   -0.4790 o         1 MOL     -0.554928
    117 H50        -5.6370   -1.9210   -0.7720 hn        1 MOL      0.117002
    118 H51        -7.6820   -1.1120   -2.7760 h1        1 MOL      0.016534
    119 H52        -9.3560   -1.4450   -1.1650 hc        1 MOL     -0.023322
    120 H53        -8.2440   -1.6740    0.1040 hc        1 MOL     -0.023322
    121 H54        -8.6500   -3.0770   -3.4140 hn        1 MOL      0.375494
    122 H55        -8.6040   -4.6800   -2.7520 hn        1 MOL      0.375494
    123 N12        -6.2000    0.9660   -1.0230 n         1 MOL     -0.324260
    124 C39        -6.3060    2.3530   -0.4770 c3        1 MOL      0.125174
    125 C40        -4.8400    2.8490   -0.0960 c         1 MOL      0.271255
    126 O19        -3.8260    2.1040    0.0500 o         1 MOL     -0.414857
    127 C41        -7.1260    2.4360    0.8530 c3        1 MOL     -0.003714
    128 C42        -6.9760    1.3670    1.9950 ca        1 MOL      0.000450
    129 C43        -7.9780    0.4020    2.0720 ca        1 MOL     -0.163822
    130 C44        -5.9020    1.2850    2.8620 ca        1 MOL     -0.163822
    131 C45        -7.8950   -0.6190    3.0230 ca        1 MOL     -0.128752
    132 C46        -5.8050    0.2470    3.7960 ca        1 MOL     -0.128752
    133 C47        -6.8420   -0.7120    3.9680 ca        1 MOL      0.160952
    134 O20        -6.7910   -1.6560    4.9540 oh        1 MOL     -0.421303
    135 H56        -5.3360    0.4680   -0.8720 hn        1 MOL      0.205986
    136 H57        -6.7370    3.0210   -1.2350 h1        1 MOL      0.048376
    137 H58        -8.1840    2.4830    0.5940 hc        1 MOL      0.021178
    138 H59        -7.0580    3.4460    1.2410 hc        1 MOL      0.021178
    139 H60        -8.8680    0.4900    1.4730 ha        1 MOL      0.122226
    140 H61        -5.0630    1.9530    2.7680 ha        1 MOL      0.122226
    141 H62        -8.7020   -1.3100    3.2170 ha        1 MOL      0.115642
    142 H63        -4.9580    0.1390    4.4510 ha        1 MOL      0.115642
    143 H64        -7.4770   -2.3300    4.8520 ho        1 MOL      0.324827
    144 N13        -4.7390    4.1740    0.1320 n         1 MOL     -0.353976
    145 C48        -3.6300    4.9940    0.6300 c3        1 MOL      0.067363
    146 C49        -2.4900    5.1100   -0.4230 c         1 MOL      0.309987
    147 O21        -2.0060    6.2330   -0.6310 o         1 MOL     -0.515774
    148 C50        -3.2970    4.5640    2.0530 c3        1 MOL     -0.018730
    149 C51        -2.3560    5.6420    2.6370 c3        1 MOL     -0.451227
    150 C52        -1.7520    5.2470    4.0520 c         1 MOL      0.717146
    151 O22        -0.8000    5.8280    4.5720 o         1 MOL     -0.711607
    152 O23        -2.3690    4.3210    4.6650 o         1 MOL     -0.711607
    153 H65        -5.6150    4.6450   -0.0490 hn        1 MOL      0.238192
    154 H66        -3.9780    6.0250    0.7030 h1        1 MOL      0.057583
    155 H67        -2.8070    3.5860    2.0580 hc        1 MOL      0.088108
    156 H68        -4.1590    4.4480    2.7140 hc        1 MOL      0.088108
    157 H69        -2.7470    6.6570    2.6900 hc        1 MOL      0.117157
    158 H70        -1.4910    5.5910    1.9760 hc        1 MOL      0.117157
    159 N14        -2.1010    4.0360   -1.1160 n         1 MOL     -0.021642
    160 C53        -0.9660    4.1180   -2.0310 c3        1 MOL     -0.278051
    161 C54        -1.3200    4.8030   -3.3360 c         1 MOL      0.504854
    162 O24        -0.4210    5.1640   -4.1380 o         1 MOL     -0.550085
    163 C55        -0.3440    2.7210   -2.2820 c3        1 MOL     -0.042578
    164 C56         0.0340    2.0000   -1.0030 c3        1 MOL      0.694259
    165 C57         1.1940    2.6870   -0.2400 c         1 MOL      0.398537
    166 O25         0.9680    3.7690    0.2750 o         1 MOL     -0.582167
    167 O26         2.2930    2.1520   -0.0630 o         1 MOL     -0.582167
    168 H71        -2.4780    3.1680   -0.7870 hn        1 MOL      0.120053
    169 H72        -0.2300    4.8010   -1.6000 h1        1 MOL      0.192044
    170 H73         0.4970    2.9040   -2.9480 hc        1 MOL     -0.012600
    171 H74        -1.0550    2.0520   -2.7790 hc        1 MOL     -0.012600
    172 H75         0.4710    1.0550   -1.3040 hc        1 MOL     -0.235734
    173 H76        -0.7860    1.9220   -0.2880 hc        1 MOL     -0.235734
    174 N15        -2.6250    4.9570   -3.6200 n         1 MOL     -0.193801
    175 C58        -3.2060    5.7620   -4.7320 c3        1 MOL     -0.243039
    176 H77        -4.2820    5.5920   -4.7790 h1        1 MOL      0.098629
    177 H78        -3.0130    6.8190   -4.5550 h1        1 MOL      0.098629
    178 H79        -2.7500    5.4620   -5.6750 h1        1 MOL      0.098629
    179 H80        -3.2590    4.5580   -2.9330 hn        1 MOL      0.153885
    180 Ca1         4.6120    1.9210    1.1400 Ca        1 MOL      1.738063
    181 O27         5.1810    3.5250    3.2200 oh        1 MOL     -0.864261
    182 H81         4.8170    3.2900    4.0720 ho        1 MOL      0.416365
    183 H82         5.1650    4.4890    3.2050 ho        1 MOL      0.416365
    184 O28         4.6710    4.6810    0.5530 oh        1 MOL     -0.864261
    185 H83         4.1030    5.4470    0.4310 ho        1 MOL      0.416365
    186 H84         5.2820    4.7210   -0.1820 ho        1 MOL      0.416365
    187 O29         5.9470    0.1200    2.5480 oh        1 MOL     -0.864261
    188 H85         6.1210    0.2140    3.4880 ho        1 MOL      0.416365
    189 H86         6.7200   -0.3280    2.2130 ho        1 MOL      0.416365
@<TRIPOS>BOND
     1    1    2 1   
     2    1    4 1   
     3    1    5 1   
     4    1    6 1   
     5    2    3 2   
     6    2    7 1   
     7    7    8 1   
     8    7   15 1   
     9    8    9 1   
    10    8   11 1   
    11    8   16 1   
    12    9   10 2   
    13    9   19 1   
    14   11   12 1   
    15   11   17 1   
    16   11   18 1   
    17   12   13 1   
    18   12   14 1   
    19   19   20 1   
    20   19   27 1   
    21   20   21 1   
    22   20   23 1   
    23   20   28 1   
    24   21   22 2   
    25   21   38 1   
    26   23   24 1   
    27   23   25 1   
    28   23   29 1   
    29   24   26 1   
    30   24   30 1   
    31   24   31 1   
    32   25   32 1   
    33   25   33 1   
    34   25   34 1   
    35   26   35 1   
    36   26   36 1   
    37   26   37 1   
    38   38   39 1   
    39   38   46 1   
    40   39   40 1   
    41   39   42 1   
    42   39   47 1   
    43   40   41 2   
    44   40   50 1   
    45   42   43 1   
    46   42   48 1   
    47   42   49 1   
    48   43   44 1   
    49   43   45 1   
    50   50   51 1   
    51   50   54 1   
    52   51   52 1   
    53   51   55 1   
    54   51   56 1   
    55   52   53 2   
    56   52   57 1   
    57   57   58 1   
    58   57   65 1   
    59   58   59 1   
    60   58   61 1   
    61   58   66 1   
    62   59   60 2   
    63   59   69 1   
    64   61   62 1   
    65   61   67 1   
    66   61   68 1   
    67   62   63 1   
    68   62   64 1   
    69   69   70 1   
    70   69   73 1   
    71   70   71 1   
    72   70   74 1   
    73   70   75 1   
    74   71   72 2   
    75   71   76 1   
    76   76   77 1   
    77   76   85 1   
    78   77   78 1   
    79   77   80 1   
    80   77   86 1   
    81   78   79 2   
    82   78   93 1   
    83   80   81 1   
    84   80   87 1   
    85   80   88 1   
    86   81   82 1   
    87   81   89 1   
    88   81   90 1   
    89   82   83 1   
    90   82   84 2   
    91   83   91 1   
    92   83   92 1   
    93   93   94 1   
    94   93  100 1   
    95   94   95 1   
    96   94   97 1   
    97   94  101 1   
    98   95   96 2   
    99   95  109 1   
   100   97   98 1   
   101   97   99 1   
   102   97  102 1   
   103   98  103 1   
   104   98  104 1   
   105   98  105 1   
   106   99  106 1   
   107   99  107 1   
   108   99  108 1   
   109  109  110 1   
   110  109  117 1   
   111  110  111 1   
   112  110  113 1   
   113  110  118 1   
   114  111  112 2   
   115  111  123 1   
   116  113  114 1   
   117  113  119 1   
   118  113  120 1   
   119  114  115 1   
   120  114  116 2   
   121  115  121 1   
   122  115  122 1   
   123  123  124 1   
   124  123  135 1   
   125  124  125 1   
   126  124  127 1   
   127  124  136 1   
   128  125  126 2   
   129  125  144 1   
   130  127  128 1   
   131  127  137 1   
   132  127  138 1   
   133  128  129 ar  
   134  128  130 ar  
   135  129  131 ar  
   136  129  139 1   
   137  130  132 ar  
   138  130  140 1   
   139  131  133 ar  
   140  131  141 1   
   141  132  133 ar  
   142  132  142 1   
   143  133  134 1   
   144  134  143 1   
   145  144  145 1   
   146  144  153 1   
   147  145  146 1   
   148  145  148 1   
   149  145  154 1   
   150  146  147 2   
   151  146  159 1   
   152  148  149 1   
   153  148  155 1   
   154  148  156 1   
   155  149  150 1   
   156  149  157 1   
   157  149  158 1   
   158  150  151 1   
   159  150  152 1   
   160  159  160 1   
   161  159  168 1   
   162  160  161 1   
   163  160  163 1   
   164  160  169 1   
   165  161  162 2   
   166  161  174 1   
   167  163  164 1   
   168  163  170 1   
   169  163  171 1   
   170  164  165 1   
   171  164  172 1   
   172  164  173 1   
   173  165  166 1   
   174  165  167 1   
   175  174  175 1   
   176  174  179 1   
   177  175  176 1   
   178  175  177 1   
   179  175  178 1   
   180  181  182 1   
   181  181  183 1   
   182  184  185 1   
   183  184  186 1   
   184  187  188 1   
   185  187  189 1   
@<TRIPOS>SUBSTRUCTURE
     1 MOL         1 TEMP              0 ****  ****    0 ROOT
