@<TRIPOS>MOLECULE
MOL
  184   179     1     0     0
SMALL
resp


@<TRIPOS>ATOM
      1 C1          0.4690    6.0850   -2.2630 c3        1 MOL     -0.403725
      2 C2          1.9080    5.7290   -1.7320 c         1 MOL      0.628676
      3 O1          2.3260    6.0880   -0.6310 o         1 MOL     -0.541504
      4 H1          0.2750    5.5320   -3.1820 hc        1 MOL      0.103273
      5 H2         -0.2730    5.8120   -1.5140 hc        1 MOL      0.103273
      6 H3          0.4090    7.1540   -2.4630 hc        1 MOL      0.103273
      7 N1          2.7630    5.1090   -2.5520 n         1 MOL     -0.525123
      8 C3          4.1880    4.9030   -2.2160 c3        1 MOL      0.126515
      9 C4          4.4660    4.0290   -1.0190 c         1 MOL      0.449040
     10 O2          3.6980    3.1090   -0.7770 o         1 MOL     -0.466968
     11 C5          4.8950    4.4110   -3.5020 c3        1 MOL     -0.241616
     12 C6          6.3790    4.1110   -3.2070 c         1 MOL      0.707644
     13 O3          6.7270    2.8960   -3.0000 o         1 MOL     -0.718244
     14 O4          7.1770    5.0490   -3.1240 o         1 MOL     -0.718244
     15 H4          2.3810    4.8160   -3.4400 hn        1 MOL      0.295758
     16 H5          4.6650    5.8450   -1.9330 h1        1 MOL      0.057235
     17 H6          4.7230    5.1590   -4.2760 hc        1 MOL      0.031972
     18 H7          4.4730    3.4830   -3.8860 hc        1 MOL      0.031972
     19 N2          5.5980    4.2840   -0.3660 n         1 MOL     -0.423632
     20 C7          6.1880    3.4190    0.6350 c3        1 MOL      0.420614
     21 C8          5.4080    3.6320    1.9820 c         1 MOL      0.112119
     22 O5          4.7700    4.6700    2.0770 o         1 MOL     -0.499126
     23 C9          7.6400    3.7850    0.7890 c3        1 MOL     -0.425081
     24 H8          6.1960    5.0670   -0.5960 hn        1 MOL      0.292923
     25 H9          6.1910    2.3810    0.3060 h1        1 MOL      0.015713
     26 H10         8.1900    3.1080    1.4470 hc        1 MOL      0.109292
     27 H11         8.0430    3.7280   -0.2280 hc        1 MOL      0.109292
     28 H12         7.6770    4.8280    1.0820 hc        1 MOL      0.109292
     29 N3          5.3260    2.8350    3.0090 n         1 MOL      0.040748
     30 C10         6.1510    1.6690    3.2920 c3        1 MOL     -0.023097
     31 C11         5.9310    0.4950    2.3460 c         1 MOL      0.389642
     32 O6          4.8120    0.3030    1.8250 o         1 MOL     -0.444584
     33 C12         5.9910    1.2250    4.7630 c3        1 MOL     -0.235316
     34 C13         4.5880    0.8580    5.2040 c         1 MOL      0.713646
     35 O7          3.8720    1.7330    5.7170 o         1 MOL     -0.695977
     36 O8          4.1460   -0.2460    4.7910 o         1 MOL     -0.695977
     37 H13         4.8100    3.2710    3.7620 hn        1 MOL      0.211557
     38 H14         7.1850    1.9960    3.1630 h1        1 MOL      0.018300
     39 H15         6.3480    2.0430    5.3760 hc        1 MOL      0.033182
     40 H16         6.6010    0.3240    4.8520 hc        1 MOL      0.033182
     41 N4          7.0020   -0.3120    2.2200 n         1 MOL     -0.421153
     42 C14         7.0850   -1.4820    1.2520 c3        1 MOL      0.015797
     43 C15         7.3780   -1.0140   -0.1670 c         1 MOL      0.645284
     44 O9          7.6750    0.1480   -0.3350 o         1 MOL     -0.502097
     45 H17         7.8180   -0.0790    2.7690 hn        1 MOL      0.315928
     46 H18         6.1260   -1.9860    1.2530 h1        1 MOL      0.042677
     47 H19         7.8670   -2.1820    1.5570 h1        1 MOL      0.042677
     48 N5          7.2270   -1.7780   -1.2300 n         1 MOL     -0.589253
     49 C16         6.8220   -3.2030   -1.3500 c3        1 MOL      0.007855
     50 C17         5.5480   -3.4290   -2.1840 c         1 MOL      0.580228
     51 O10         5.2540   -4.5210   -2.6120 o         1 MOL     -0.534511
     52 C18         7.9840   -4.0470   -1.7880 c3        1 MOL     -0.098421
     53 C19         9.0650   -3.9830   -0.7990 c         1 MOL      0.621905
     54 N6          8.9140   -4.8110    0.2130 n         1 MOL     -0.786031
     55 O11        10.0720   -3.3110   -0.9460 o         1 MOL     -0.546151
     56 H20         7.2580   -1.3240   -2.1270 hn        1 MOL      0.343646
     57 H21         6.4520   -3.5490   -0.3900 h1        1 MOL      0.060324
     58 H22         8.3230   -3.7880   -2.8000 hc        1 MOL      0.045964
     59 H23         7.7060   -5.0860   -1.9180 hc        1 MOL      0.045964
     60 H24         8.1820   -5.4980    0.1440 hn        1 MOL      0.365841
     61 H25         9.7810   -4.9020    0.7240 hn        1 MOL      0.365841
     62 N7          4.7920   -2.3400   -2.3270 n         1 MOL     -0.310232
     63 C20         3.8680   -2.3360   -3.4140 c3        1 MOL     -0.196500
     64 C21         2.6210   -3.2100   -3.1840 c         1 MOL      0.474798
     65 O12         2.0170   -3.6110   -4.1470 o         1 MOL     -0.529225
     66 H26         5.1460   -1.4840   -1.9220 hn        1 MOL      0.287548
     67 H27         4.2510   -2.7520   -4.3430 h1        1 MOL      0.126175
     68 H28         3.5830   -1.3030   -3.6090 h1        1 MOL      0.126175
     69 N8          2.1280   -3.4290   -1.9380 n         1 MOL     -0.157110
     70 C22         0.9150   -4.2230   -1.7080 c3        1 MOL     -0.024569
     71 C23        -0.2430   -3.3690   -1.2390 c         1 MOL      0.574414
     72 O13        -0.1030   -2.3420   -0.6380 o         1 MOL     -0.618109
     73 C24         1.0900   -5.5120   -0.7450 c3        1 MOL      0.660841
     74 C25         2.0550   -6.4930   -1.3730 c3        1 MOL     -0.469680
     75 O14         1.4730   -5.1080    0.5160 oh        1 MOL     -0.770019
     76 H29         2.6630   -3.1160   -1.1320 hn        1 MOL      0.135025
     77 H30         0.6300   -4.6480   -2.6800 h1        1 MOL      0.004962
     78 H31         0.1370   -6.0060   -0.5840 h1        1 MOL     -0.089079
     79 H32         1.0980   -5.6730    1.1940 ho        1 MOL      0.464443
     80 H33         2.1060   -7.3230   -0.6610 hc        1 MOL      0.099015
     81 H34         1.7450   -6.8980   -2.3250 hc        1 MOL      0.099015
     82 H35         3.0760   -6.1430   -1.5330 hc        1 MOL      0.099015
     83 N9         -1.4830   -3.7630   -1.4770 n         1 MOL     -0.436049
     84 C26        -2.6510   -3.0260   -0.9810 c3        1 MOL     -0.154733
     85 C27        -3.0320   -3.4040    0.4300 c         1 MOL      0.496833
     86 O15        -2.8840   -4.5310    0.8120 o         1 MOL     -0.524961
     87 C28        -3.8750   -3.4310   -1.9260 c3        1 MOL      0.120986
     88 C29        -5.1730   -2.6840   -1.6670 c3        1 MOL      0.128880
     89 C30        -3.3880   -3.2110   -3.3670 c3        1 MOL     -0.227794
     90 C31        -6.3930   -3.0850   -2.5360 c3        1 MOL     -0.282122
     91 H36        -1.7780   -4.6090   -1.9600 hn        1 MOL      0.247222
     92 H37        -2.4080   -1.9610   -1.0090 h1        1 MOL      0.325571
     93 H38        -4.1180   -4.4900   -1.8470 hc        1 MOL      0.025968
     94 H39        -4.9960   -1.6130   -1.5370 hc        1 MOL     -0.023896
     95 H40        -5.4510   -3.0140   -0.6610 hc        1 MOL     -0.023896
     96 H41        -4.1720   -3.2300   -4.1240 hc        1 MOL      0.053755
     97 H42        -2.7730   -2.3180   -3.4810 hc        1 MOL      0.053755
     98 H43        -2.8700   -4.0750   -3.7760 hc        1 MOL      0.053755
     99 H44        -6.4870   -2.4970   -3.4530 hc        1 MOL      0.049926
    100 H45        -6.2100   -4.0970   -2.8890 hc        1 MOL      0.049926
    101 H46        -7.2720   -2.9670   -1.9020 hc        1 MOL      0.049926
    102 N10        -3.5470   -2.3760    1.1170 n         1 MOL     -0.183424
    103 C32        -4.1010   -2.4260    2.4740 c3        1 MOL      0.096665
    104 C33        -5.4670   -1.7560    2.4750 c         1 MOL      0.321130
    105 O16        -6.2660   -2.0900    3.3370 o         1 MOL     -0.535298
    106 C34        -3.1900   -1.7880    3.5180 c3        1 MOL      0.017388
    107 C35        -1.8490   -2.4750    3.4850 c         1 MOL      0.659626
    108 O17        -1.7010   -3.4730    4.2000 o         1 MOL     -0.710159
    109 O18        -0.8610   -1.8940    2.9550 o         1 MOL     -0.710159
    110 H47        -3.5310   -1.4690    0.6630 hn        1 MOL     -0.097131
    111 H48        -4.2880   -3.4700    2.7110 h1        1 MOL      0.075594
    112 H49        -3.6040   -1.9050    4.5180 hc        1 MOL      0.001609
    113 H50        -3.0120   -0.7330    3.2750 hc        1 MOL      0.001609
    114 N11        -5.7820   -0.8460    1.5380 n         1 MOL     -0.409315
    115 C36        -7.0540   -0.1660    1.3080 c3        1 MOL      0.314805
    116 C37        -6.9470    1.3460    0.7600 c         1 MOL      0.104899
    117 O19        -7.5460    1.7170   -0.2660 o         1 MOL     -0.403564
    118 C38        -7.9460   -1.1310    0.5000 c3        1 MOL     -0.138432
    119 C39        -9.3910   -0.8040    0.4960 ca        1 MOL      0.120813
    120 C40       -10.0560   -0.4930    1.6600 ca        1 MOL     -0.204107
    121 C41       -10.0580   -0.8510   -0.7340 ca        1 MOL     -0.204107
    122 C42       -11.4790   -0.3430    1.6680 ca        1 MOL     -0.073320
    123 C43       -11.5030   -0.7200   -0.7240 ca        1 MOL     -0.073320
    124 C44       -12.1850   -0.5220    0.4110 ca        1 MOL     -0.189581
    125 H51        -4.9970   -0.5650    0.9610 hn        1 MOL      0.271248
    126 H52        -7.6280   -0.0600    2.2280 h1        1 MOL      0.001659
    127 H53        -7.9510   -2.1020    0.9890 hc        1 MOL      0.103938
    128 H54        -7.5160   -1.1850   -0.5010 hc        1 MOL      0.103938
    129 H55        -9.5620   -0.4430    2.6140 ha        1 MOL      0.135191
    130 H56        -9.5690   -0.9480   -1.6860 ha        1 MOL      0.135191
    131 H57       -12.1010   -0.0810    2.5020 ha        1 MOL      0.093304
    132 H58       -12.0350   -0.8310   -1.6540 ha        1 MOL      0.093304
    133 H59       -13.2480   -0.3140    0.4220 ha        1 MOL      0.111695
    134 N12        -6.1280    2.2020    1.3740 n         1 MOL      0.082074
    135 C45        -5.7700    3.5730    0.8320 c3        1 MOL     -0.122099
    136 C46        -5.4020    3.6250   -0.6090 c         1 MOL      0.215016
    137 O20        -5.6400    4.7200   -1.1830 o         1 MOL     -0.464737
    138 C47        -4.5950    4.0140    1.6780 c3        1 MOL      0.301133
    139 C48        -4.8200    3.4800    3.0150 c3        1 MOL     -0.382802
    140 C49        -5.3780    2.0440    2.6170 c3        1 MOL     -0.054284
    141 H60        -6.6020    4.2340    1.1030 h1        1 MOL      0.093701
    142 H61        -3.6620    3.6070    1.3080 hc        1 MOL     -0.016770
    143 H62        -4.4600    5.0920    1.7200 hc        1 MOL     -0.016770
    144 H63        -3.7950    3.3840    3.3670 hc        1 MOL      0.116815
    145 H64        -5.5820    4.0400    3.5530 hc        1 MOL      0.116815
    146 H65        -4.6000    1.3090    2.3930 h1        1 MOL      0.073597
    147 H66        -6.0500    1.7410    3.4210 h1        1 MOL      0.073597
    148 N13        -4.6680    2.6200   -1.1260 n         1 MOL     -0.110266
    149 C50        -4.3180    2.4250   -2.5180 c3        1 MOL     -0.213918
    150 C51        -5.5420    2.4860   -3.4950 c         1 MOL      0.471750
    151 O21        -5.4700    3.0850   -4.5530 o         1 MOL     -0.530005
    152 C52        -3.5250    1.1080   -2.6120 c3        1 MOL      0.227857
    153 C53        -2.3130    0.8860   -1.7430 c3        1 MOL     -0.506069
    154 C54        -2.6280    0.5920   -0.2490 c         1 MOL      0.316180
    155 O22        -1.7640    0.7670    0.6220 o         1 MOL     -0.516499
    156 O23        -3.7180    0.1310    0.0650 o         1 MOL     -0.516499
    157 H67        -4.4800    1.8270   -0.5180 hn        1 MOL      0.379609
    158 H68        -3.5870    3.1630   -2.8440 h1        1 MOL      0.115470
    159 H69        -3.2190    0.8800   -3.6330 hc        1 MOL     -0.040646
    160 H70        -4.2980    0.3940   -2.3240 hc        1 MOL     -0.040646
    161 H71        -1.6640    1.7500   -1.8720 hc        1 MOL      0.158723
    162 H72        -1.7500    0.0280   -2.1220 hc        1 MOL      0.158723
    163 N14        -6.7470    2.0220   -3.0310 n         1 MOL     -0.113668
    164 C55        -7.9730    2.2530   -3.8410 c3        1 MOL     -0.403431
    165 H73        -8.0140    1.5280   -4.6530 h1        1 MOL      0.141627
    166 H74        -8.8530    2.1400   -3.2090 h1        1 MOL      0.141627
    167 H75        -7.9490    3.2610   -4.2570 h1        1 MOL      0.141627
    168 H76        -6.8250    1.6350   -2.1030 hn        1 MOL      0.137099
    169 Ca1         0.3880   -0.2800    1.4300 Ca        1 MOL      1.702645
    170 O24         0.7650    0.1450   -1.1340 oh        1 MOL     -0.849240
    171 H77         0.4850   -0.4450   -1.8310 ho        1 MOL      0.411575
    172 H78         0.9190    0.9780   -1.5750 ho        1 MOL      0.411575
    173 O25         2.0750   -1.0150    3.4010 oh        1 MOL     -0.849240
    174 H79         1.9390   -1.9060    3.7040 ho        1 MOL      0.411575
    175 H80         2.8600   -0.7210    3.8680 ho        1 MOL      0.411575
    176 O26         2.9510   -1.1300    0.7340 oh        1 MOL     -0.849240
    177 H81         3.2850   -2.0040    0.9160 ho        1 MOL      0.411575
    178 H82         3.5780   -0.5350    1.1700 ho        1 MOL      0.411575
    179 O27        -0.2120    1.7130    3.0700 oh        1 MOL     -0.849240
    180 H83        -1.0000    1.6950    3.6080 ho        1 MOL      0.411575
    181 H84         0.2310    2.5250    3.3040 ho        1 MOL      0.411575
    182 O28         2.1180    1.7860    1.2130 oh        1 MOL     -0.849240
    183 H85         2.4080    2.3760    1.9130 ho        1 MOL      0.411575
    184 H86         2.4450    2.1870    0.4080 ho        1 MOL      0.411575
@<TRIPOS>BOND
     1    1    2 1   
     2    1    4 1   
     3    1    5 1   
     4    1    6 1   
     5    2    3 2   
     6    2    7 1   
     7    7    8 1   
     8    7   15 1   
     9    8    9 1   
    10    8   11 1   
    11    8   16 1   
    12    9   10 2   
    13    9   19 1   
    14   11   12 1   
    15   11   17 1   
    16   11   18 1   
    17   12   13 1   
    18   12   14 1   
    19   19   20 1   
    20   19   24 1   
    21   20   21 1   
    22   20   23 1   
    23   20   25 1   
    24   21   22 2   
    25   21   29 1   
    26   23   26 1   
    27   23   27 1   
    28   23   28 1   
    29   29   30 1   
    30   29   37 1   
    31   30   31 1   
    32   30   33 1   
    33   30   38 1   
    34   31   32 2   
    35   31   41 1   
    36   33   34 1   
    37   33   39 1   
    38   33   40 1   
    39   34   35 1   
    40   34   36 1   
    41   41   42 1   
    42   41   45 1   
    43   42   43 1   
    44   42   46 1   
    45   42   47 1   
    46   43   44 2   
    47   43   48 1   
    48   48   49 1   
    49   48   56 1   
    50   49   50 1   
    51   49   52 1   
    52   49   57 1   
    53   50   51 2   
    54   50   62 1   
    55   52   53 1   
    56   52   58 1   
    57   52   59 1   
    58   53   54 1   
    59   53   55 2   
    60   54   60 1   
    61   54   61 1   
    62   62   63 1   
    63   62   66 1   
    64   63   64 1   
    65   63   67 1   
    66   63   68 1   
    67   64   65 2   
    68   64   69 1   
    69   69   70 1   
    70   69   76 1   
    71   70   71 1   
    72   70   73 1   
    73   70   77 1   
    74   71   72 2   
    75   71   83 1   
    76   73   74 1   
    77   73   75 1   
    78   73   78 1   
    79   74   80 1   
    80   74   81 1   
    81   74   82 1   
    82   75   79 1   
    83   83   84 1   
    84   83   91 1   
    85   84   85 1   
    86   84   87 1   
    87   84   92 1   
    88   85   86 2   
    89   85  102 1   
    90   87   88 1   
    91   87   89 1   
    92   87   93 1   
    93   88   90 1   
    94   88   94 1   
    95   88   95 1   
    96   89   96 1   
    97   89   97 1   
    98   89   98 1   
    99   90   99 1   
   100   90  100 1   
   101   90  101 1   
   102  102  103 1   
   103  102  110 1   
   104  103  104 1   
   105  103  106 1   
   106  103  111 1   
   107  104  105 2   
   108  104  114 1   
   109  106  107 1   
   110  106  112 1   
   111  106  113 1   
   112  107  108 1   
   113  107  109 1   
   114  114  115 1   
   115  114  125 1   
   116  115  116 1   
   117  115  118 1   
   118  115  126 1   
   119  116  117 2   
   120  116  134 1   
   121  118  119 1   
   122  118  127 1   
   123  118  128 1   
   124  119  120 ar  
   125  119  121 ar  
   126  120  122 ar  
   127  120  129 1   
   128  121  123 ar  
   129  121  130 1   
   130  122  124 ar  
   131  122  131 1   
   132  123  124 ar  
   133  123  132 1   
   134  124  133 1   
   135  134  135 1   
   136  134  140 1   
   137  135  136 1   
   138  135  138 1   
   139  135  141 1   
   140  136  137 2   
   141  136  148 1   
   142  138  139 1   
   143  138  142 1   
   144  138  143 1   
   145  139  140 1   
   146  139  144 1   
   147  139  145 1   
   148  140  146 1   
   149  140  147 1   
   150  148  149 1   
   151  148  157 1   
   152  149  150 1   
   153  149  152 1   
   154  149  158 1   
   155  150  151 2   
   156  150  163 1   
   157  152  153 1   
   158  152  159 1   
   159  152  160 1   
   160  153  154 1   
   161  153  161 1   
   162  153  162 1   
   163  154  155 1   
   164  154  156 1   
   165  163  164 1   
   166  163  168 1   
   167  164  165 1   
   168  164  166 1   
   169  164  167 1   
   170  170  171 1   
   171  170  172 1   
   172  173  174 1   
   173  173  175 1   
   174  176  177 1   
   175  176  178 1   
   176  179  180 1   
   177  179  181 1   
   178  182  183 1   
   179  182  184 1   
@<TRIPOS>SUBSTRUCTURE
     1 MOL         1 TEMP              0 ****  ****    0 ROOT
