@<TRIPOS>MOLECULE
MOL
  192   187     1     0     0
SMALL
resp


@<TRIPOS>ATOM
      1 C1          9.4530    1.1820    1.3330 c3        1 MOL     -0.442226
      2 C2          8.1630    0.7640    0.6380 c         1 MOL      0.724951
      3 O1          7.1200    0.5700    1.2140 o         1 MOL     -0.683254
      4 H1         10.2770    1.1460    0.6210 hc        1 MOL      0.112568
      5 H2          9.3480    2.1970    1.7160 hc        1 MOL      0.112568
      6 H3          9.6570    0.5010    2.1600 hc        1 MOL      0.112568
      7 N1          8.2530    0.4900   -0.6730 n         1 MOL     -0.420696
      8 C3          7.1790    0.0750   -1.5720 c3        1 MOL      0.004207
      9 C4          6.8580   -1.4340   -1.4340 c         1 MOL      0.450607
     10 O2          6.9130   -2.1320   -2.4920 o         1 MOL     -0.442255
     11 C5          7.5880    0.4940   -3.0180 c3        1 MOL     -0.342060
     12 C6          8.9210    0.0470   -3.5400 c         1 MOL      0.798933
     13 O3          9.8780   -0.3250   -2.7830 o         1 MOL     -0.644324
     14 O4          9.1320    0.0320   -4.7440 o         1 MOL     -0.644324
     15 H4          9.1510    0.5600   -1.1440 hn        1 MOL      0.203624
     16 H5          6.2690    0.6150   -1.2790 h1        1 MOL      0.152473
     17 H6          7.6110    1.5770   -2.9300 hc        1 MOL      0.103348
     18 H7          6.8320    0.1390   -3.7260 hc        1 MOL      0.103348
     19 N2          6.5520   -1.9620   -0.2080 n         1 MOL     -0.374800
     20 C7          6.0670   -3.3560   -0.0190 c3        1 MOL      0.225007
     21 C8          4.5710   -3.5210   -0.3980 c         1 MOL      0.399291
     22 O5          4.3310   -4.5540   -1.0450 o         1 MOL     -0.519906
     23 C9          6.3540   -3.8670    1.3970 c3        1 MOL      0.026409
     24 C10         7.7790   -3.4750    1.8670 c3        1 MOL      0.022243
     25 C11         8.2580   -4.3430    3.1050 c3        1 MOL     -0.085950
     26 C12         9.7240   -4.0700    3.4780 c3        1 MOL      0.073834
     27 N3          9.8930   -4.0820    4.9310 n4        1 MOL     -0.256580
     28 H8          6.7200   -1.3290    0.5680 hn        1 MOL      0.156048
     29 H9          6.6440   -4.0300   -0.6480 h1        1 MOL      0.035511
     30 H10         6.1450   -4.9270    1.5000 hc        1 MOL     -0.007510
     31 H11         5.7380   -3.3440    2.1320 hc        1 MOL     -0.007510
     32 H12         7.9300   -2.4090    2.0030 hc        1 MOL      0.006783
     33 H13         8.4380   -3.6170    1.0130 hc        1 MOL      0.006783
     34 H14         8.0840   -5.4000    2.9120 hc        1 MOL      0.044896
     35 H15         7.5940   -3.9110    3.8490 hc        1 MOL      0.044896
     36 H16        10.0440   -3.0860    3.1330 hx        1 MOL      0.079376
     37 H17        10.3940   -4.8000    3.0300 hx        1 MOL      0.079376
     38 H18        10.8310   -3.8580    5.2250 hn        1 MOL      0.254630
     39 H19         9.3050   -3.3990    5.3800 hn        1 MOL      0.254630
     40 H20         9.5580   -4.9460    5.3250 hn        1 MOL      0.254630
     41 N4          3.6720   -2.5950   -0.0940 n         1 MOL     -0.372533
     42 C13         3.7550   -1.3730    0.7260 c3        1 MOL      0.144957
     43 C14         3.7770   -0.0380   -0.0420 c         1 MOL      0.320939
     44 O6          3.6900   -0.0160   -1.3110 o         1 MOL     -0.501314
     45 C15         2.5690   -1.3510    1.7160 c3        1 MOL     -0.478204
     46 C16         1.1760   -1.6380    1.1380 c         1 MOL      0.660169
     47 O7          0.6820   -0.7580    0.4350 o         1 MOL     -0.663695
     48 O8          0.5920   -2.7510    1.3640 o         1 MOL     -0.663695
     49 H21         2.7630   -2.7260   -0.5210 hn        1 MOL      0.354228
     50 H22         4.6350   -1.3550    1.3720 h1        1 MOL      0.118338
     51 H23         2.5830   -0.4670    2.3520 hc        1 MOL      0.096713
     52 H24         2.6820   -2.0930    2.5070 hc        1 MOL      0.096713
     53 N5          4.0290    1.0900    0.6490 n         1 MOL     -0.069202
     54 C17         3.9960    2.4930    0.1090 c3        1 MOL     -0.224828
     55 C18         2.7660    2.9440   -0.6620 c         1 MOL      0.786661
     56 O9          1.7560    2.3030   -0.4890 o         1 MOL     -0.795436
     57 H25         4.0270    0.9660    1.6500 hn        1 MOL      0.206056
     58 H26         4.8170    2.5690   -0.6070 h1        1 MOL      0.074331
     59 H27         4.0350    3.2400    0.9110 h1        1 MOL      0.074331
     60 N6          2.7910    4.1100   -1.2410 n         1 MOL     -0.613253
     61 C19         1.6210    4.7840   -1.6950 c3        1 MOL      0.321563
     62 C20         1.7570    6.2330   -1.4840 c         1 MOL      0.460718
     63 O10         2.8360    6.7870   -1.2460 o         1 MOL     -0.580388
     64 C21         1.5150    4.4730   -3.1590 c3        1 MOL     -0.366503
     65 C22         1.1860    2.9860   -3.3990 c         1 MOL      0.788278
     66 O11         0.1790    2.4980   -2.8450 o         1 MOL     -0.689831
     67 O12         1.7010    2.3880   -4.3660 o         1 MOL     -0.689831
     68 H28         3.6790    4.5600   -1.3890 hn        1 MOL      0.339266
     69 H29         0.7180    4.4350   -1.1900 h1        1 MOL      0.062028
     70 H30         2.5060    4.6940   -3.5750 hc        1 MOL      0.088733
     71 H31         0.7820    5.1120   -3.6320 hc        1 MOL      0.088733
     72 N7          0.7590    7.0520   -1.5610 n         1 MOL     -0.388306
     73 C23        -0.7340    6.8460   -1.7070 c3        1 MOL     -0.207158
     74 C24        -1.3990    6.2360   -0.5220 c         1 MOL      0.680803
     75 O13        -0.9670    6.5720    0.5700 o         1 MOL     -0.510906
     76 H32         1.0740    8.0040   -1.4750 hn        1 MOL      0.313069
     77 H33        -0.9110    6.2310   -2.5900 h1        1 MOL      0.106612
     78 H34        -1.0720    7.8740   -1.8260 h1        1 MOL      0.106612
     79 N8         -2.3980    5.4340   -0.7730 n         1 MOL     -0.680853
     80 C25        -3.1440    4.6880    0.2430 c3        1 MOL      0.195324
     81 C26        -2.1990    3.5830    0.7140 c         1 MOL      0.612214
     82 O14        -1.4450    2.9760   -0.0510 o         1 MOL     -0.743269
     83 C27        -4.4890    4.2040   -0.2830 c3        1 MOL      0.463398
     84 C28        -5.5020    5.3030   -0.3720 c3        1 MOL     -0.428553
     85 O15        -4.9800    3.3120    0.7150 oh        1 MOL     -0.691315
     86 H35        -2.6460    5.1500   -1.7030 hn        1 MOL      0.334570
     87 H36        -3.3420    5.3030    1.1200 h1        1 MOL      0.032460
     88 H37        -4.4160    3.6710   -1.2360 h1        1 MOL      0.016292
     89 H38        -5.4000    2.5450    0.3160 ho        1 MOL      0.380785
     90 H39        -6.4710    4.8580   -0.6230 hc        1 MOL      0.105425
     91 H40        -5.5010    5.9370    0.5190 hc        1 MOL      0.105425
     92 H41        -5.2670    5.9450   -1.2130 hc        1 MOL      0.105425
     93 N9         -2.2030    3.2710    2.0120 n         1 MOL     -0.372897
     94 C29        -1.2500    2.3360    2.8030 c3        1 MOL      0.006946
     95 C30        -1.4480    0.8040    2.4920 c         1 MOL      0.467937
     96 O16        -1.7290    0.3520    1.3960 o         1 MOL     -0.520101
     97 C31         0.2190    2.8590    2.8220 c3        1 MOL      0.044942
     98 C32         0.3580    4.3010    3.4740 c3        1 MOL     -0.008306
     99 C33         1.1910    1.9270    3.4950 c3        1 MOL     -0.268435
    100 C34         1.7050    4.9810    3.1150 c3        1 MOL     -0.119978
    101 H42        -2.8600    3.7690    2.5820 hn        1 MOL      0.248846
    102 H43        -1.5870    2.4540    3.8300 h1        1 MOL      0.050672
    103 H44         0.5940    2.9240    1.7910 hc        1 MOL      0.191811
    104 H45         0.1560    4.2600    4.5490 hc        1 MOL     -0.005160
    105 H46        -0.3700    4.9060    2.9460 hc        1 MOL     -0.005160
    106 H47         0.9980    1.9300    4.5730 hc        1 MOL      0.072565
    107 H48         1.1280    0.8970    3.1470 hc        1 MOL      0.072565
    108 H49         2.2230    2.2680    3.3340 hc        1 MOL      0.072565
    109 H50         2.4010    4.7620    3.9260 hc        1 MOL      0.039608
    110 H51         2.1550    4.6500    2.1820 hc        1 MOL      0.039608
    111 H52         1.5840    6.0670    3.0700 hc        1 MOL      0.039608
    112 N10        -1.3920    0.0550    3.5890 n         1 MOL     -0.413792
    113 C35        -1.6350   -1.4170    3.6690 c3        1 MOL      0.121426
    114 C36        -3.1440   -1.6200    3.7310 c         1 MOL      0.452659
    115 O17        -3.6170   -2.2670    4.6920 o         1 MOL     -0.539523
    116 C37        -0.7940   -2.0740    4.8160 c3        1 MOL      0.347756
    117 C38        -1.0090   -1.4420    6.1640 c3        1 MOL     -0.316187
    118 O18         0.6040   -1.9610    4.4600 oh        1 MOL     -0.590352
    119 H53        -1.3070    0.5130    4.4820 hn        1 MOL      0.243023
    120 H54        -1.3370   -1.8300    2.7090 h1        1 MOL      0.036254
    121 H55        -1.0340   -3.1330    4.8430 h1        1 MOL      0.020403
    122 H56         0.7400   -2.6680    3.8180 ho        1 MOL      0.365399
    123 H57        -0.2750   -1.7340    6.9120 hc        1 MOL      0.086122
    124 H58        -0.8510   -0.3620    6.2550 hc        1 MOL      0.086122
    125 H59        -1.9920   -1.6550    6.5990 hc        1 MOL      0.086122
    126 N11        -3.9120   -1.1720    2.7100 n         1 MOL     -0.353506
    127 C39        -5.3500   -1.5420    2.5160 c3        1 MOL      0.012560
    128 C40        -5.5590   -1.5970    1.0080 c         1 MOL      0.552126
    129 O19        -4.7730   -0.9150    0.3030 o         1 MOL     -0.492695
    130 C41        -6.2990   -0.5020    3.1820 c3        1 MOL      0.396312
    131 C42        -6.1270    0.9030    2.6400 c3        1 MOL     -0.461713
    132 O20        -7.6430   -0.9320    3.1870 oh        1 MOL     -0.662584
    133 H60        -3.4140   -0.6020    2.0500 hn        1 MOL      0.197398
    134 H61        -5.6670   -2.4930    2.9380 h1        1 MOL      0.050733
    135 H62        -5.9500   -0.5380    4.2140 h1        1 MOL     -0.000639
    136 H63        -8.0210   -0.8530    4.0710 ho        1 MOL      0.410965
    137 H64        -6.5940    0.9730    1.6520 hc        1 MOL      0.124509
    138 H65        -6.6760    1.5240    3.3520 hc        1 MOL      0.124509
    139 H66        -5.0960    1.2090    2.5240 hc        1 MOL      0.124509
    140 N12        -6.4380   -2.4340    0.5360 n         1 MOL     -0.481967
    141 C43        -6.8750   -2.7160   -0.8870 c3        1 MOL      0.156534
    142 C44        -5.6290   -2.5020   -1.8810 c         1 MOL      0.482764
    143 O21        -5.5820   -1.6450   -2.7440 o         1 MOL     -0.536092
    144 C45        -8.0670   -1.8240   -1.2410 c3        1 MOL     -0.425446
    145 C46        -9.3370   -1.9550   -0.2350 c3        1 MOL      0.234374
    146 C47       -10.3540   -0.8360   -0.7560 c3        1 MOL     -0.073757
    147 C48       -11.4760   -0.8320    0.2470 c3        1 MOL      0.009324
    148 N13       -12.6070    0.0670   -0.2130 n4        1 MOL     -0.101067
    149 H67        -7.0180   -2.9240    1.1960 hn        1 MOL      0.292539
    150 H68        -7.0970   -3.7660   -1.0420 h1        1 MOL      0.051819
    151 H69        -8.4580   -2.1050   -2.2280 hc        1 MOL      0.127398
    152 H70        -7.7810   -0.7790   -1.3480 hc        1 MOL      0.127398
    153 H71        -9.0100   -1.8570    0.8020 hc        1 MOL     -0.015260
    154 H72        -9.7460   -2.9590   -0.2710 hc        1 MOL     -0.015260
    155 H73       -10.6710   -1.2210   -1.7240 hc        1 MOL      0.050590
    156 H74        -9.8930    0.1480   -0.8370 hc        1 MOL      0.050590
    157 H75       -11.1080   -0.3940    1.1670 hx        1 MOL      0.055850
    158 H76       -11.8330   -1.8570    0.3180 hx        1 MOL      0.055850
    159 H77       -12.2160    0.8420   -0.7320 hn        1 MOL      0.175376
    160 H78       -13.1780   -0.4680   -0.8430 hn        1 MOL      0.175376
    161 H79       -13.1850    0.5200    0.4880 hn        1 MOL      0.175376
    162 N14        -4.6010   -3.2290   -1.6370 n         1 MOL     -0.367297
    163 C49        -3.3000   -3.2060   -2.3360 c3        1 MOL      0.242158
    164 C50        -2.1260   -2.7770   -1.4470 c         1 MOL      0.350161
    165 O22        -1.5060   -1.7700   -1.7380 o         1 MOL     -0.595346
    166 C51        -3.0240   -4.5170   -3.0790 c3        1 MOL     -0.085313
    167 C52        -3.6970   -4.5860   -4.4060 c3        1 MOL     -0.344029
    168 C53        -3.6370   -6.0420   -5.0000 c         1 MOL      0.727760
    169 O23        -4.2990   -6.9040   -4.4000 o         1 MOL     -0.641365
    170 O24        -2.8370   -6.3510   -5.9030 o         1 MOL     -0.641365
    171 H80        -4.7550   -3.9890   -0.9880 hn        1 MOL      0.220144
    172 H81        -3.3170   -2.5100   -3.1730 h1        1 MOL      0.076362
    173 H82        -3.2080   -5.3350   -2.3880 hc        1 MOL      0.089975
    174 H83        -1.9480   -4.5920   -3.2400 hc        1 MOL      0.089975
    175 H84        -3.2870   -3.9060   -5.1470 hc        1 MOL      0.073142
    176 H85        -4.7800   -4.4750   -4.3140 hc        1 MOL      0.073142
    177 N15        -1.7170   -3.5260   -0.3960 n         1 MOL     -0.367763
    178 C54        -2.1670   -4.9080    0.0010 c3        1 MOL     -0.005266
    179 H86        -3.1580   -4.8500    0.4520 h1        1 MOL      0.037893
    180 H87        -2.2070   -5.5450   -0.8810 h1        1 MOL      0.037893
    181 H88        -1.4650   -5.3260    0.7210 h1        1 MOL      0.037893
    182 H89        -0.9230   -3.1320    0.0770 hn        1 MOL      0.364514
    183 Ca1        -0.5640    0.7590   -1.1290 Ca        1 MOL      1.842422
    184 O25        -1.2100    0.4310   -4.0640 oh        1 MOL     -0.844819
    185 H90        -0.7160    0.9110   -4.7300 ho        1 MOL      0.406112
    186 H91        -1.2870   -0.4500   -4.4210 ho        1 MOL      0.406112
    187 O26         1.4210   -0.2130   -2.6630 oh        1 MOL     -0.844819
    188 H92         1.5790    0.5700   -3.1830 ho        1 MOL      0.406112
    189 H93         2.2700   -0.4280   -2.2840 ho        1 MOL      0.406112
    190 O27        -3.3290    0.9690   -1.6520 oh        1 MOL     -0.844819
    191 H94        -3.7880    0.4720   -0.9720 ho        1 MOL      0.406112
    192 H95        -3.8440    0.8170   -2.4500 ho        1 MOL      0.406112
@<TRIPOS>BOND
     1    1    2 1   
     2    1    4 1   
     3    1    5 1   
     4    1    6 1   
     5    2    3 2   
     6    2    7 1   
     7    7    8 1   
     8    7   15 1   
     9    8    9 1   
    10    8   11 1   
    11    8   16 1   
    12    9   10 2   
    13    9   19 1   
    14   11   12 1   
    15   11   17 1   
    16   11   18 1   
    17   12   13 1   
    18   12   14 1   
    19   19   20 1   
    20   19   28 1   
    21   20   21 1   
    22   20   23 1   
    23   20   29 1   
    24   21   22 2   
    25   21   41 1   
    26   23   24 1   
    27   23   30 1   
    28   23   31 1   
    29   24   25 1   
    30   24   32 1   
    31   24   33 1   
    32   25   26 1   
    33   25   34 1   
    34   25   35 1   
    35   26   27 1   
    36   26   36 1   
    37   26   37 1   
    38   27   38 1   
    39   27   39 1   
    40   27   40 1   
    41   41   42 1   
    42   41   49 1   
    43   42   43 1   
    44   42   45 1   
    45   42   50 1   
    46   43   44 2   
    47   43   53 1   
    48   45   46 1   
    49   45   51 1   
    50   45   52 1   
    51   46   47 1   
    52   46   48 1   
    53   53   54 1   
    54   53   57 1   
    55   54   55 1   
    56   54   58 1   
    57   54   59 1   
    58   55   56 2   
    59   55   60 1   
    60   60   61 1   
    61   60   68 1   
    62   61   62 1   
    63   61   64 1   
    64   61   69 1   
    65   62   63 2   
    66   62   72 1   
    67   64   65 1   
    68   64   70 1   
    69   64   71 1   
    70   65   66 1   
    71   65   67 1   
    72   72   73 1   
    73   72   76 1   
    74   73   74 1   
    75   73   77 1   
    76   73   78 1   
    77   74   75 2   
    78   74   79 1   
    79   79   80 1   
    80   79   86 1   
    81   80   81 1   
    82   80   83 1   
    83   80   87 1   
    84   81   82 2   
    85   81   93 1   
    86   83   84 1   
    87   83   85 1   
    88   83   88 1   
    89   84   90 1   
    90   84   91 1   
    91   84   92 1   
    92   85   89 1   
    93   93   94 1   
    94   93  101 1   
    95   94   95 1   
    96   94   97 1   
    97   94  102 1   
    98   95   96 2   
    99   95  112 1   
   100   97   98 1   
   101   97   99 1   
   102   97  103 1   
   103   98  100 1   
   104   98  104 1   
   105   98  105 1   
   106   99  106 1   
   107   99  107 1   
   108   99  108 1   
   109  100  109 1   
   110  100  110 1   
   111  100  111 1   
   112  112  113 1   
   113  112  119 1   
   114  113  114 1   
   115  113  116 1   
   116  113  120 1   
   117  114  115 2   
   118  114  126 1   
   119  116  117 1   
   120  116  118 1   
   121  116  121 1   
   122  117  123 1   
   123  117  124 1   
   124  117  125 1   
   125  118  122 1   
   126  126  127 1   
   127  126  133 1   
   128  127  128 1   
   129  127  130 1   
   130  127  134 1   
   131  128  129 2   
   132  128  140 1   
   133  130  131 1   
   134  130  132 1   
   135  130  135 1   
   136  131  137 1   
   137  131  138 1   
   138  131  139 1   
   139  132  136 1   
   140  140  141 1   
   141  140  149 1   
   142  141  142 1   
   143  141  144 1   
   144  141  150 1   
   145  142  143 2   
   146  142  162 1   
   147  144  145 1   
   148  144  151 1   
   149  144  152 1   
   150  145  146 1   
   151  145  153 1   
   152  145  154 1   
   153  146  147 1   
   154  146  155 1   
   155  146  156 1   
   156  147  148 1   
   157  147  157 1   
   158  147  158 1   
   159  148  159 1   
   160  148  160 1   
   161  148  161 1   
   162  162  163 1   
   163  162  171 1   
   164  163  164 1   
   165  163  166 1   
   166  163  172 1   
   167  164  165 2   
   168  164  177 1   
   169  166  167 1   
   170  166  173 1   
   171  166  174 1   
   172  167  168 1   
   173  167  175 1   
   174  167  176 1   
   175  168  169 1   
   176  168  170 1   
   177  177  178 1   
   178  177  182 1   
   179  178  179 1   
   180  178  180 1   
   181  178  181 1   
   182  184  185 1   
   183  184  186 1   
   184  187  188 1   
   185  187  189 1   
   186  190  191 1   
   187  190  192 1   
@<TRIPOS>SUBSTRUCTURE
     1 MOL         1 TEMP              0 ****  ****    0 ROOT
