@<TRIPOS>MOLECULE
MOL
  184   179     1     0     0
SMALL
resp


@<TRIPOS>ATOM
      1 C1          7.4220   -7.3710    1.4340 c3        1 MOL     -0.385673
      2 C2          6.3520   -6.7610    0.5520 c         1 MOL      0.624414
      3 O1          5.9980   -7.3770   -0.4030 o         1 MOL     -0.574303
      4 H1          8.3180   -7.5560    0.8430 hc        1 MOL      0.096317
      5 H2          7.6590   -6.6840    2.2470 hc        1 MOL      0.096317
      6 H3          7.0600   -8.3120    1.8470 hc        1 MOL      0.096317
      7 N1          5.8360   -5.5180    0.7880 n         1 MOL     -0.274214
      8 C3          5.9590   -4.7260    1.9960 c3        1 MOL     -0.112775
      9 C4          7.1990   -3.8250    2.2110 c         1 MOL      0.601992
     10 O2          7.5740   -3.6410    3.3780 o         1 MOL     -0.570997
     11 C5          4.6690   -3.9300    2.2860 c3        1 MOL     -0.433466
     12 C6          4.1660   -3.0740    1.0870 c         1 MOL      0.888963
     13 O3          3.1140   -2.4720    1.1660 o         1 MOL     -0.738146
     14 O4          4.8790   -2.8980    0.1060 o         1 MOL     -0.738146
     15 H4          5.2430   -5.1030    0.0910 hn        1 MOL      0.203522
     16 H5          6.0260   -5.3950    2.8590 h1        1 MOL      0.110864
     17 H6          4.7890   -3.2350    3.1190 hc        1 MOL      0.138781
     18 H7          3.8790   -4.6020    2.6390 hc        1 MOL      0.138781
     19 N2          7.9500   -3.4170    1.1180 n         1 MOL     -0.510148
     20 C7          9.2320   -2.6520    1.0000 c3        1 MOL      0.313554
     21 C8          9.3650   -1.6730   -0.1650 c         1 MOL      0.348136
     22 O5         10.3040   -0.8690   -0.1780 o         1 MOL     -0.554790
     23 C9         10.4950   -3.6320    0.8550 c3        1 MOL     -0.315504
     24 H8          7.5430   -3.6970    0.2430 hn        1 MOL      0.228238
     25 H9          9.3950   -2.0580    1.8940 h1        1 MOL      0.021176
     26 H10        10.5690   -4.2940    1.7150 hc        1 MOL      0.080150
     27 H11        10.2470   -4.2370   -0.0140 hc        1 MOL      0.080150
     28 H12        11.4470   -3.0950    0.7950 hc        1 MOL      0.080150
     29 N3          8.4800   -1.6590   -1.1640 n         1 MOL     -0.089952
     30 C10         8.6420   -0.7740   -2.3160 c3        1 MOL     -0.267278
     31 C11         8.4800    0.7550   -2.0540 c         1 MOL      0.508801
     32 O6          8.9820    1.6100   -2.7930 o         1 MOL     -0.548808
     33 C12         7.6570   -1.0440   -3.4450 c3        1 MOL     -0.152519
     34 C13         6.1890   -1.0720   -3.0350 c         1 MOL      0.785585
     35 O7          5.6860   -0.4710   -2.0500 o         1 MOL     -0.740168
     36 O8          5.3810   -1.5720   -3.8240 o         1 MOL     -0.740168
     37 H13         7.6910   -2.2770   -1.0710 hn        1 MOL      0.178463
     38 H14         9.6730   -1.0350   -2.5840 h1        1 MOL      0.145770
     39 H15         7.7760   -2.0280   -3.9070 hc        1 MOL      0.066634
     40 H16         7.8690   -0.2890   -4.2090 hc        1 MOL      0.066634
     41 N4          7.7360    1.0970   -0.9940 n         1 MOL     -0.052221
     42 C14         7.3740    2.4720   -0.5950 c3        1 MOL     -0.292377
     43 C15         6.0700    2.4900    0.2200 c         1 MOL      0.759195
     44 O9          5.1030    1.7430    0.0150 o         1 MOL     -0.595255
     45 H17         7.3890    0.3180   -0.4660 hn        1 MOL      0.052597
     46 H18         7.1400    3.0990   -1.4530 h1        1 MOL      0.115157
     47 H19         8.1820    2.8480    0.0220 h1        1 MOL      0.115157
     48 N5          5.9980    3.5660    1.0390 n         1 MOL     -0.513181
     49 C16         4.8420    4.1530    1.7810 c3        1 MOL     -0.115679
     50 C17         3.8920    4.8430    0.7840 c         1 MOL      0.631983
     51 O10         4.3100    5.5710   -0.1180 o         1 MOL     -0.518987
     52 C18         5.3580    5.2560    2.7690 c3        1 MOL     -0.397009
     53 C19         4.3430    5.7850    3.7090 c         1 MOL      0.662811
     54 N6          4.0090    7.0030    3.6060 n         1 MOL     -0.676012
     55 O11         3.9590    5.0830    4.6430 o         1 MOL     -0.553531
     56 H20         6.7650    4.2170    1.0970 hn        1 MOL      0.297557
     57 H21         4.4000    3.4300    2.4560 h1        1 MOL      0.171471
     58 H22         5.9140    5.9840    2.1820 hc        1 MOL      0.138052
     59 H23         6.0120    4.6710    3.4170 hc        1 MOL      0.138052
     60 H24         4.2090    7.5130    2.7610 hn        1 MOL      0.334999
     61 H25         3.1680    7.3060    4.0710 hn        1 MOL      0.334999
     62 N7          2.5870    4.5950    0.9610 n         1 MOL     -0.533375
     63 C20         1.5430    5.2330    0.0990 c3        1 MOL     -0.068387
     64 C21         1.3410    4.3440   -1.1640 c         1 MOL      0.885797
     65 O12         2.0280    3.3810   -1.3550 o         1 MOL     -0.603263
     66 H26         2.2960    3.9480    1.6700 hn        1 MOL      0.316110
     67 H27         1.9280    6.2000   -0.2300 h1        1 MOL      0.093078
     68 H28         0.5840    5.2360    0.6180 h1        1 MOL      0.093078
     69 N8          0.2790    4.5810   -1.9530 n         1 MOL     -0.886100
     70 C22        -0.8550    5.5420   -1.7730 c3        1 MOL      0.145548
     71 C23        -2.0180    4.8030   -1.0750 c         1 MOL      0.418261
     72 O13        -2.8760    5.4510   -0.4670 o         1 MOL     -0.543942
     73 C24        -1.2670    6.0060   -3.1570 c3        1 MOL      0.527389
     74 C25        -2.3780    7.0080   -3.1530 c3        1 MOL     -0.297656
     75 O14        -0.1520    6.5420   -3.8250 oh        1 MOL     -0.679652
     76 H29         0.1340    3.8690   -2.6560 hn        1 MOL      0.375909
     77 H30        -0.5730    6.4100   -1.1770 h1        1 MOL      0.040679
     78 H31        -1.6130    5.1480   -3.7380 h1        1 MOL     -0.057979
     79 H32         0.5830    5.9240   -3.8040 ho        1 MOL      0.399090
     80 H33        -2.3090    7.7180   -2.3290 hc        1 MOL      0.077420
     81 H34        -2.3480    7.6090   -4.0580 hc        1 MOL      0.077420
     82 H35        -3.3340    6.5120   -3.2350 hc        1 MOL      0.077420
     83 N9         -2.0290    3.4290   -1.1050 n         1 MOL     -0.348183
     84 C26        -3.0010    2.7180   -0.2700 c3        1 MOL      0.027473
     85 C27        -2.3400    1.5960    0.5850 c         1 MOL      0.537943
     86 O15        -1.2430    1.1830    0.1910 o         1 MOL     -0.597752
     87 C28        -4.1590    2.0510   -1.1320 c3        1 MOL      0.067362
     88 C29        -3.7130    0.9690   -2.1390 c3        1 MOL      0.193303
     89 C30        -4.9140    3.1080   -1.9130 c3        1 MOL     -0.131528
     90 C31        -4.7870    0.3210   -3.0410 c3        1 MOL     -0.371658
     91 H36        -1.3640    2.9050   -1.6550 hn        1 MOL      0.266631
     92 H37        -3.5400    3.3800    0.3950 h1        1 MOL      0.106769
     93 H38        -4.8790    1.5320   -0.4960 hc        1 MOL     -0.007402
     94 H39        -3.1720    0.1640   -1.6320 hc        1 MOL     -0.043996
     95 H40        -2.9620    1.4490   -2.7660 hc        1 MOL     -0.043996
     96 H41        -4.1560    3.5900   -2.5190 hc        1 MOL      0.018641
     97 H42        -5.7080    2.7240   -2.5470 hc        1 MOL      0.018641
     98 H43        -5.2780    3.8940   -1.2490 hc        1 MOL      0.018641
     99 H44        -4.3310   -0.5330   -3.5360 hc        1 MOL      0.102125
    100 H45        -5.6170   -0.0660   -2.4390 hc        1 MOL      0.102125
    101 H46        -5.2450    1.0250   -3.7200 hc        1 MOL      0.102125
    102 N10        -2.9060    0.9650    1.5800 n         1 MOL     -0.472424
    103 C32        -4.0800    1.3170    2.3130 c3        1 MOL      0.042929
    104 C33        -5.1720    0.3370    2.0740 c         1 MOL      0.602953
    105 O16        -4.9940   -0.8450    1.7760 o         1 MOL     -0.452858
    106 C34        -3.7040    1.2420    3.7730 c3        1 MOL     -0.284543
    107 C35        -3.2950   -0.1430    4.3270 c         1 MOL      0.719497
    108 O17        -2.0950   -0.5700    4.1770 o         1 MOL     -0.690952
    109 O18        -4.1050   -0.7800    4.9960 o         1 MOL     -0.690952
    110 H47        -2.4090    0.1670    1.9490 hn        1 MOL      0.367873
    111 H48        -4.3940    2.3540    2.1770 h1        1 MOL      0.063525
    112 H49        -4.5150    1.5580    4.4220 hc        1 MOL      0.035841
    113 H50        -2.8880    1.9360    3.9900 hc        1 MOL      0.035841
    114 N11        -6.3550    0.9050    2.1550 n         1 MOL     -0.714868
    115 C36        -7.5810    0.2510    1.6190 c3        1 MOL      0.490658
    116 C37        -7.8250    0.6350    0.1560 c         1 MOL      0.185091
    117 O19        -7.4870    1.7400   -0.2530 o         1 MOL     -0.492508
    118 C38        -8.7570    0.6300    2.4720 c3        1 MOL     -0.158202
    119 C39       -10.0400   -0.1700    2.1960 ca        1 MOL     -0.022681
    120 C40       -10.9020    0.4140    1.2760 ca        1 MOL     -0.080598
    121 C41       -10.3410   -1.4530    2.7370 ca        1 MOL     -0.080598
    122 C42       -12.1290   -0.1980    0.9870 ca        1 MOL     -0.199900
    123 C43       -11.5470   -2.0800    2.3330 ca        1 MOL     -0.199900
    124 C44       -12.4430   -1.5130    1.4320 ca        1 MOL     -0.038411
    125 H51        -6.4290    1.9020    2.3000 hn        1 MOL      0.329038
    126 H52        -7.5410   -0.8170    1.8190 h1        1 MOL      0.044090
    127 H53        -8.9720    1.6930    2.4040 hc        1 MOL      0.054617
    128 H54        -8.4850    0.4760    3.5130 hc        1 MOL      0.054617
    129 H55       -10.7210    1.4620    1.0470 ha        1 MOL      0.121673
    130 H56        -9.6410   -1.9980    3.3450 ha        1 MOL      0.121673
    131 H57       -12.7600    0.2590    0.2350 ha        1 MOL      0.118007
    132 H58       -11.8490   -2.9830    2.8450 ha        1 MOL      0.118007
    133 H59       -13.3580   -2.0180    1.1650 ha        1 MOL      0.093917
    134 N12        -8.1840   -0.3670   -0.6660 n         1 MOL     -0.006148
    135 C45        -8.5400   -1.8040   -0.3180 c3        1 MOL     -0.044652
    136 C46        -7.3580   -2.7130   -0.2890 c         1 MOL      0.415468
    137 O20        -7.2940   -3.6240    0.5480 o         1 MOL     -0.524302
    138 C47        -9.5680   -2.2470   -1.3410 c3        1 MOL      0.078772
    139 C48        -9.0830   -1.4270   -2.5980 c3        1 MOL     -0.245321
    140 C49        -8.6050   -0.0680   -2.0480 c3        1 MOL     -0.015412
    141 H60        -9.0200   -1.8860    0.6560 h1        1 MOL      0.095534
    142 H61        -9.6660   -3.3200   -1.5320 hc        1 MOL      0.005613
    143 H62       -10.5560   -1.8900   -1.0300 hc        1 MOL      0.005613
    144 H63        -8.2600   -1.8950   -3.1390 hc        1 MOL      0.092199
    145 H64        -9.8280   -1.3430   -3.3820 hc        1 MOL      0.092199
    146 H65        -7.7970    0.3200   -2.6620 h1        1 MOL      0.051316
    147 H66        -9.3860    0.6990   -2.0310 h1        1 MOL      0.051316
    148 N13        -6.3010   -2.4630   -1.0960 n         1 MOL     -0.413515
    149 C50        -5.2820   -3.5000   -1.3310 c3        1 MOL      0.411585
    150 C51        -5.6500   -4.2690   -2.6130 c         1 MOL      0.427492
    151 O21        -5.9290   -3.7190   -3.6350 o         1 MOL     -0.575417
    152 C52        -3.8960   -2.8230   -1.5480 c3        1 MOL      0.023726
    153 C53        -2.6590   -3.7790   -1.3830 c3        1 MOL     -0.430029
    154 C54        -1.4860   -2.9790   -0.7980 c         1 MOL      0.818455
    155 O22        -1.4450   -2.7820    0.4320 o         1 MOL     -0.717362
    156 O23        -0.6860   -2.4210   -1.5950 o         1 MOL     -0.717362
    157 H67        -6.2670   -1.6830   -1.7320 hn        1 MOL      0.103036
    158 H68        -5.2400   -4.1120   -0.4300 h1        1 MOL      0.032562
    159 H69        -3.7780   -2.0250   -0.8110 hc        1 MOL      0.063995
    160 H70        -3.9440   -2.4280   -2.5550 hc        1 MOL      0.063995
    161 H71        -2.4070   -4.2530   -2.3250 hc        1 MOL      0.048015
    162 H72        -2.9230   -4.6000   -0.7110 hc        1 MOL      0.048015
    163 N14        -5.7600   -5.6330   -2.6390 n         1 MOL     -0.353094
    164 C55        -5.6600   -6.6150   -1.6000 c3        1 MOL     -0.098246
    165 H73        -4.6480   -6.6130   -1.1940 h1        1 MOL      0.061471
    166 H74        -6.3690   -6.3790   -0.8060 h1        1 MOL      0.061471
    167 H75        -5.8850   -7.6010   -2.0070 h1        1 MOL      0.061471
    168 H76        -6.1150   -6.0300   -3.5010 hn        1 MOL      0.262186
    169 Ca1         3.6930   -0.3930   -0.3250 Ca        1 MOL      1.820377
    170 O24         1.0950   -0.4000   -0.5550 oh        1 MOL     -0.864505
    171 H77         0.4460   -1.0780   -0.3970 ho        1 MOL      0.418251
    172 H78         0.5800    0.3870   -0.7640 ho        1 MOL      0.418251
    173 O25         3.0370   -2.1340   -2.2180 oh        1 MOL     -0.864505
    174 H79         3.7270   -2.1690   -2.8850 ho        1 MOL      0.418251
    175 H80         2.6270   -3.0020   -2.2610 ho        1 MOL      0.418251
    176 O26         2.5400    0.8380    1.9720 oh        1 MOL     -0.864505
    177 H81         1.6300    1.0270    1.7340 ho        1 MOL      0.418251
    178 H82         2.6130    1.1310    2.8770 ho        1 MOL      0.418251
    179 O27         2.9740    1.2310   -2.3510 oh        1 MOL     -0.864505
    180 H83         3.6440    1.4610   -2.9910 ho        1 MOL      0.418251
    181 H84         2.5100    2.0430   -2.1810 ho        1 MOL      0.418251
    182 O28         5.4380   -0.3310    2.0730 oh        1 MOL     -0.864505
    183 H85         6.3530   -0.0620    2.0530 ho        1 MOL      0.418251
    184 H86         5.1230   -0.0710    2.9280 ho        1 MOL      0.418251
@<TRIPOS>BOND
     1    1    2 1   
     2    1    4 1   
     3    1    5 1   
     4    1    6 1   
     5    2    3 2   
     6    2    7 1   
     7    7    8 1   
     8    7   15 1   
     9    8    9 1   
    10    8   11 1   
    11    8   16 1   
    12    9   10 2   
    13    9   19 1   
    14   11   12 1   
    15   11   17 1   
    16   11   18 1   
    17   12   13 1   
    18   12   14 1   
    19   19   20 1   
    20   19   24 1   
    21   20   21 1   
    22   20   23 1   
    23   20   25 1   
    24   21   22 2   
    25   21   29 1   
    26   23   26 1   
    27   23   27 1   
    28   23   28 1   
    29   29   30 1   
    30   29   37 1   
    31   30   31 1   
    32   30   33 1   
    33   30   38 1   
    34   31   32 2   
    35   31   41 1   
    36   33   34 1   
    37   33   39 1   
    38   33   40 1   
    39   34   35 1   
    40   34   36 1   
    41   41   42 1   
    42   41   45 1   
    43   42   43 1   
    44   42   46 1   
    45   42   47 1   
    46   43   44 2   
    47   43   48 1   
    48   48   49 1   
    49   48   56 1   
    50   49   50 1   
    51   49   52 1   
    52   49   57 1   
    53   50   51 2   
    54   50   62 1   
    55   52   53 1   
    56   52   58 1   
    57   52   59 1   
    58   53   54 1   
    59   53   55 2   
    60   54   60 1   
    61   54   61 1   
    62   62   63 1   
    63   62   66 1   
    64   63   64 1   
    65   63   67 1   
    66   63   68 1   
    67   64   65 2   
    68   64   69 1   
    69   69   70 1   
    70   69   76 1   
    71   70   71 1   
    72   70   73 1   
    73   70   77 1   
    74   71   72 2   
    75   71   83 1   
    76   73   74 1   
    77   73   75 1   
    78   73   78 1   
    79   74   80 1   
    80   74   81 1   
    81   74   82 1   
    82   75   79 1   
    83   83   84 1   
    84   83   91 1   
    85   84   85 1   
    86   84   87 1   
    87   84   92 1   
    88   85   86 2   
    89   85  102 1   
    90   87   88 1   
    91   87   89 1   
    92   87   93 1   
    93   88   90 1   
    94   88   94 1   
    95   88   95 1   
    96   89   96 1   
    97   89   97 1   
    98   89   98 1   
    99   90   99 1   
   100   90  100 1   
   101   90  101 1   
   102  102  103 1   
   103  102  110 1   
   104  103  104 1   
   105  103  106 1   
   106  103  111 1   
   107  104  105 2   
   108  104  114 1   
   109  106  107 1   
   110  106  112 1   
   111  106  113 1   
   112  107  108 1   
   113  107  109 1   
   114  114  115 1   
   115  114  125 1   
   116  115  116 1   
   117  115  118 1   
   118  115  126 1   
   119  116  117 2   
   120  116  134 1   
   121  118  119 1   
   122  118  127 1   
   123  118  128 1   
   124  119  120 ar  
   125  119  121 ar  
   126  120  122 ar  
   127  120  129 1   
   128  121  123 ar  
   129  121  130 1   
   130  122  124 ar  
   131  122  131 1   
   132  123  124 ar  
   133  123  132 1   
   134  124  133 1   
   135  134  135 1   
   136  134  140 1   
   137  135  136 1   
   138  135  138 1   
   139  135  141 1   
   140  136  137 2   
   141  136  148 1   
   142  138  139 1   
   143  138  142 1   
   144  138  143 1   
   145  139  140 1   
   146  139  144 1   
   147  139  145 1   
   148  140  146 1   
   149  140  147 1   
   150  148  149 1   
   151  148  157 1   
   152  149  150 1   
   153  149  152 1   
   154  149  158 1   
   155  150  151 2   
   156  150  163 1   
   157  152  153 1   
   158  152  159 1   
   159  152  160 1   
   160  153  154 1   
   161  153  161 1   
   162  153  162 1   
   163  154  155 1   
   164  154  156 1   
   165  163  164 1   
   166  163  168 1   
   167  164  165 1   
   168  164  166 1   
   169  164  167 1   
   170  170  171 1   
   171  170  172 1   
   172  173  174 1   
   173  173  175 1   
   174  176  177 1   
   175  176  178 1   
   176  179  180 1   
   177  179  181 1   
   178  182  183 1   
   179  182  184 1   
@<TRIPOS>SUBSTRUCTURE
     1 MOL         1 TEMP              0 ****  ****    0 ROOT
