@<TRIPOS>MOLECULE
MOL
  195   189     1     0     0
SMALL
resp


@<TRIPOS>ATOM
      1 C1        -10.7060   -6.5460   -2.6910 c3        1 MOL     -0.241397
      2 C2        -10.8430   -5.0300   -2.2410 c         1 MOL      0.571180
      3 O1        -11.8520   -4.4540   -2.6730 o         1 MOL     -0.579640
      4 H1        -10.2980   -7.1320   -1.8680 hc        1 MOL      0.067802
      5 H2        -11.6880   -6.9350   -2.9620 hc        1 MOL      0.067802
      6 H3        -10.0390   -6.6120   -3.5500 hc        1 MOL      0.067802
      7 N1         -9.9650   -4.4760   -1.4590 n         1 MOL     -0.102951
      8 C3        -10.0040   -3.2610   -0.6470 c3        1 MOL     -0.666369
      9 C4         -8.8220   -2.2750   -0.6910 c         1 MOL      0.657890
     10 O2         -7.7110   -2.7500   -0.5280 o         1 MOL     -0.499855
     11 C5        -10.4130   -3.6970    0.7900 c3        1 MOL      0.360193
     12 C6         -9.3640   -4.5350    1.5250 c         1 MOL      0.556994
     13 O3         -8.3310   -5.1020    0.9700 o         1 MOL     -0.676431
     14 O4         -9.6460   -4.7360    2.7070 o         1 MOL     -0.676431
     15 H4         -9.2430   -5.1410   -1.2260 hn        1 MOL      0.084589
     16 H5        -10.8580   -2.6430   -0.9190 h1        1 MOL      0.155050
     17 H6        -11.3430   -4.2620    0.7650 hc        1 MOL     -0.008482
     18 H7        -10.5610   -2.7670    1.3420 hc        1 MOL     -0.008482
     19 N2         -9.1060   -0.9600   -0.7210 n         1 MOL     -0.359901
     20 C7         -8.0430    0.0840   -0.9450 c3        1 MOL     -0.010858
     21 C8         -7.1540    0.5540    0.2800 c         1 MOL      0.445772
     22 O5         -7.2060    1.7420    0.6070 o         1 MOL     -0.543665
     23 C9         -8.7730    1.2060   -1.6890 c3        1 MOL     -0.050587
     24 C10        -7.9820    2.3090   -2.3750 c3        1 MOL     -0.025538
     25 C11        -9.0040    3.3250   -2.7770 c3        1 MOL     -0.018599
     26 C12        -8.3260    4.5730   -3.2430 c3        1 MOL      0.024212
     27 N3         -7.6800    5.4180   -2.1990 n4        1 MOL     -0.359199
     28 H8        -10.0640   -0.6440   -0.8240 hn        1 MOL      0.285460
     29 H9         -7.3550   -0.3180   -1.6960 h1        1 MOL      0.041139
     30 H10        -9.4330    1.6030   -0.9200 hc        1 MOL      0.040635
     31 H11        -9.4670    0.7650   -2.3900 hc        1 MOL      0.040635
     32 H12        -7.4060    1.9380   -3.2220 hc        1 MOL      0.024233
     33 H13        -7.2900    2.7510   -1.6500 hc        1 MOL      0.024233
     34 H14        -9.8400    3.4760   -2.0890 hc        1 MOL      0.049810
     35 H15        -9.6000    3.0240   -3.6360 hc        1 MOL      0.049810
     36 H16        -9.0660    5.1890   -3.7550 hx        1 MOL      0.076559
     37 H17        -7.6090    4.2920   -4.0190 hx        1 MOL      0.076559
     38 H18        -7.3620    6.2970   -2.5710 hn        1 MOL      0.339412
     39 H19        -8.3410    5.7030   -1.4960 hn        1 MOL      0.339412
     40 H20        -6.9060    4.9440   -1.7540 hn        1 MOL      0.339412
     41 N4         -6.3060   -0.2900    0.8740 n         1 MOL      0.000677
     42 C13        -5.4180    0.1490    2.0220 c3        1 MOL     -0.186348
     43 C14        -3.8930   -0.1070    1.7440 c         1 MOL      0.485117
     44 O6         -3.5660   -1.0680    1.0930 o         1 MOL     -0.523966
     45 C15        -5.8430   -0.7320    3.2790 c3        1 MOL     -0.011511
     46 C16        -6.0510   -2.2340    3.1140 c         1 MOL      0.587698
     47 O7         -6.1140   -2.8880    4.1950 o         1 MOL     -0.617681
     48 O8         -6.0980   -2.7170    1.9280 o         1 MOL     -0.617681
     49 H21        -6.2830   -1.2740    0.6150 hn        1 MOL     -0.078032
     50 H22        -5.6500    1.2180    2.0700 h1        1 MOL      0.118570
     51 H23        -6.8320   -0.3910    3.5940 hc        1 MOL      0.038937
     52 H24        -5.1420   -0.5300    4.0850 hc        1 MOL      0.038937
     53 N5         -3.0350    0.7410    2.3150 n         1 MOL     -0.297295
     54 C17        -3.2570    1.9720    3.1090 c3        1 MOL     -0.083102
     55 C18        -3.6120    3.2330    2.2960 c         1 MOL      0.548977
     56 O9         -4.2430    3.1220    1.2510 o         1 MOL     -0.464560
     57 H25        -2.1060    0.6980    1.9310 hn        1 MOL      0.262109
     58 H26        -2.3240    2.1140    3.6310 h1        1 MOL      0.068982
     59 H27        -4.0890    1.7760    3.7830 h1        1 MOL      0.068982
     60 N6         -3.3250    4.4400    2.7930 n         1 MOL     -0.531517
     61 C19        -3.5130    5.7170    2.0960 c3        1 MOL      0.325347
     62 C20        -2.6560    5.9310    0.8950 c         1 MOL      0.442763
     63 O10        -3.1710    6.2060   -0.1930 o         1 MOL     -0.512629
     64 C21        -3.4050    6.8410    3.0920 c3        1 MOL     -0.310543
     65 C22        -3.8250    8.2780    2.5910 c         1 MOL      0.650492
     66 O11        -4.4150    8.4370    1.4720 o         1 MOL     -0.669217
     67 O12        -3.6900    9.3090    3.3830 o         1 MOL     -0.669217
     68 H28        -2.9020    4.4070    3.7130 hn        1 MOL      0.275428
     69 H29        -4.5450    5.7470    1.7240 h1        1 MOL      0.008558
     70 H30        -2.4240    6.8200    3.5660 hc        1 MOL      0.051127
     71 H31        -4.1290    6.6950    3.9010 hc        1 MOL      0.051127
     72 N7         -1.3670    5.5660    1.0420 n         1 MOL     -0.279830
     73 C23        -0.3950    5.5010   -0.0630 c3        1 MOL     -0.263504
     74 C24        -0.3950    4.2210   -0.9170 c         1 MOL      0.542971
     75 O13         0.5720    3.8250   -1.5320 o         1 MOL     -0.549805
     76 H32        -1.0430    5.3140    1.9690 hn        1 MOL      0.256260
     77 H33         0.5680    5.5560    0.4400 h1        1 MOL      0.146217
     78 H34        -0.5820    6.3940   -0.6690 h1        1 MOL      0.146217
     79 N8         -1.4920    3.4680   -0.8030 n         1 MOL     -0.268907
     80 C25        -1.4460    2.0700   -1.3620 c3        1 MOL      0.122516
     81 C26        -0.6530    1.1550   -0.4670 c         1 MOL      0.362109
     82 O14        -0.7400    1.2790    0.7390 o         1 MOL     -0.498078
     83 C27        -2.8180    1.4580   -1.5310 c3        1 MOL      0.578489
     84 C28        -3.7380    2.4290   -2.2910 c3        1 MOL     -0.339235
     85 O15        -2.6400    0.3880   -2.3260 oh        1 MOL     -0.698155
     86 H35        -2.1910    3.7860   -0.1530 hn        1 MOL      0.092800
     87 H36        -0.8800    2.0720   -2.3040 h1        1 MOL      0.053956
     88 H37        -3.3240    1.1730   -0.6070 h1        1 MOL     -0.112043
     89 H38        -3.4600   -0.1120   -2.3260 ho        1 MOL      0.403362
     90 H39        -4.0710    1.8060   -3.1210 hc        1 MOL      0.065070
     91 H40        -4.5790    2.6250   -1.6260 hc        1 MOL      0.065070
     92 H41        -3.1770    3.2800   -2.6820 hc        1 MOL      0.065070
     93 N9          0.1500    0.3090   -1.0450 n         1 MOL     -0.231568
     94 C29         1.0890   -0.5720   -0.3520 c3        1 MOL     -0.406190
     95 C30         2.5190   -0.0960   -0.1120 c         1 MOL      0.736669
     96 O16         3.2570   -0.8290    0.5140 o         1 MOL     -0.580722
     97 C31         1.0130   -2.0660   -0.8120 c3        1 MOL      0.078144
     98 C32         1.2410   -2.2170   -2.3250 c3        1 MOL      0.082787
     99 C33        -0.3300   -2.6670   -0.4340 c3        1 MOL     -0.021824
    100 C34         1.4720   -3.6520   -2.8130 c3        1 MOL     -0.234824
    101 H42         0.2460    0.2030   -2.0380 hn        1 MOL      0.269408
    102 H43         0.7970   -0.5980    0.6970 h1        1 MOL      0.158007
    103 H44         1.7610   -2.6820   -0.3120 hc        1 MOL      0.051845
    104 H45         2.1770   -1.6870   -2.5120 hc        1 MOL      0.001244
    105 H46         0.4010   -1.7220   -2.8170 hc        1 MOL      0.001244
    106 H47        -0.2090   -3.7460   -0.4220 hc        1 MOL      0.015316
    107 H48        -0.5820   -2.2500    0.5350 hc        1 MOL      0.015316
    108 H49        -1.1820   -2.4540   -1.0900 hc        1 MOL      0.015316
    109 H50         2.2300   -4.1310   -2.1890 hc        1 MOL      0.059412
    110 H51         0.5210   -4.1800   -2.7670 hc        1 MOL      0.059412
    111 H52         1.8000   -3.7180   -3.8520 hc        1 MOL      0.059412
    112 N10         2.8750    1.0510   -0.6200 n         1 MOL     -0.449219
    113 C35         4.1040    1.8270   -0.3750 c3        1 MOL     -0.057162
    114 C36         4.9830    1.9550   -1.5590 c         1 MOL      0.698184
    115 O17         4.5160    2.0260   -2.7020 o         1 MOL     -0.555688
    116 C37         3.7500    3.2280    0.1400 c3        1 MOL      0.497119
    117 C38         2.6840    3.2320    1.3450 c3        1 MOL     -0.436905
    118 O18         4.8850    3.9110    0.5730 oh        1 MOL     -0.650868
    119 H53         2.1050    1.5000   -1.0970 hn        1 MOL      0.217050
    120 H54         4.7010    1.3040    0.3790 h1        1 MOL      0.049168
    121 H55         3.3570    3.7350   -0.7470 h1        1 MOL      0.016441
    122 H56         5.2090    3.4400    1.3510 ho        1 MOL      0.381712
    123 H57         1.7550    2.7940    0.9720 hc        1 MOL      0.106139
    124 H58         3.0430    2.5170    2.0840 hc        1 MOL      0.106139
    125 H59         2.4540    4.2300    1.6990 hc        1 MOL      0.106139
    126 N11         6.2660    1.9110   -1.3040 n         1 MOL     -0.612849
    127 C39         7.3020    2.1970   -2.2780 c3        1 MOL      0.075981
    128 C40         8.4240    1.0430   -2.4170 c         1 MOL      0.581945
    129 O19         8.8190    0.7830   -3.5670 o         1 MOL     -0.543014
    130 C41         7.9760    3.4450   -1.8140 c3        1 MOL      0.327035
    131 C42         9.1270    3.9410   -2.7480 c3        1 MOL     -0.620658
    132 O20         8.4360    3.2920   -0.5100 oh        1 MOL     -0.643637
    133 H60         6.6030    1.7230   -0.3620 hn        1 MOL      0.326595
    134 H61         6.8560    2.3430   -3.2620 h1        1 MOL      0.087275
    135 H62         7.1420    4.1590   -1.7550 h1        1 MOL      0.035834
    136 H63         8.9210    4.0930   -0.2780 ho        1 MOL      0.403311
    137 H64         8.8220    3.7400   -3.7700 hc        1 MOL      0.167852
    138 H65         9.0340    5.0260   -2.7490 hc        1 MOL      0.167852
    139 H66        10.0920    3.5210   -2.4640 hc        1 MOL      0.167852
    140 N12         8.8620    0.4210   -1.3130 n         1 MOL     -0.458594
    141 C43        10.0150   -0.4450   -1.2650 c3        1 MOL     -0.039297
    142 C44         9.9540   -1.3110    0.0400 c         1 MOL      0.668942
    143 O21         9.5430   -0.9660    1.1240 o         1 MOL     -0.550121
    144 C45        11.3540    0.3020   -1.2260 c3        1 MOL     -0.262306
    145 C46        11.5410    1.1750    0.0300 c3        1 MOL     -0.017432
    146 C47        12.7760    2.0450   -0.0340 c3        1 MOL      0.258155
    147 C48        12.7970    2.7900    1.2650 c3        1 MOL     -0.094162
    148 N13        13.3350    4.1740    1.0850 n4        1 MOL     -0.202200
    149 H67         8.3600    0.6240   -0.4700 hn        1 MOL      0.270406
    150 H68        10.0400   -1.1130   -2.1280 h1        1 MOL      0.133229
    151 H69        11.4470    0.8740   -2.1540 hc        1 MOL      0.110050
    152 H70        12.1280   -0.4660   -1.1620 hc        1 MOL      0.110050
    153 H71        11.6820    0.6390    0.9660 hc        1 MOL      0.018088
    154 H72        10.7240    1.8850    0.1440 hc        1 MOL      0.018088
    155 H73        12.7410    2.8050   -0.8160 hc        1 MOL     -0.048326
    156 H74        13.6470    1.4080   -0.1990 hc        1 MOL     -0.048326
    157 H75        13.2860    2.1930    2.0410 hx        1 MOL      0.107101
    158 H76        11.7530    2.9170    1.5740 hx        1 MOL      0.107101
    159 H77        13.4160    4.6640    1.9670 hn        1 MOL      0.224639
    160 H78        14.2660    4.1130    0.6780 hn        1 MOL      0.224639
    161 H79        12.7830    4.7410    0.4650 hn        1 MOL      0.224639
    162 N14        10.4160   -2.5690   -0.1710 n         1 MOL     -0.581456
    163 C49        10.7290   -3.4710    1.0090 c3        1 MOL      0.278792
    164 C50         9.5940   -4.0340    1.8440 c         1 MOL      0.439069
    165 O22         9.7560   -4.0870    3.0570 o         1 MOL     -0.556154
    166 C51        11.6120   -4.6410    0.4430 c3        1 MOL      0.047030
    167 C52        12.3020   -5.4470    1.5230 c3        1 MOL     -0.179368
    168 C53        13.0250   -6.6720    0.8460 c         1 MOL      0.654504
    169 O23        12.2920   -7.6490    0.5490 o         1 MOL     -0.641854
    170 O24        14.2980   -6.6200    0.6510 o         1 MOL     -0.641854
    171 H80        10.7000   -2.7820   -1.1150 hn        1 MOL      0.258569
    172 H81        11.4000   -3.0070    1.7270 h1        1 MOL      0.015246
    173 H82        12.3820   -4.2180   -0.1940 hc        1 MOL     -0.001416
    174 H83        11.0490   -5.3220   -0.2010 hc        1 MOL     -0.001416
    175 H84        11.5510   -5.7510    2.2480 hc        1 MOL      0.029298
    176 H85        13.0960   -4.8400    1.9680 hc        1 MOL      0.029298
    177 N15         8.4250   -4.4810    1.3800 n         1 MOL     -0.373874
    178 C54         8.0460   -4.7290   -0.0030 c3        1 MOL      0.007540
    179 H86         7.8730   -3.7780   -0.5080 h1        1 MOL      0.041750
    180 H87         8.8460   -5.2680   -0.5090 h1        1 MOL      0.041750
    181 H88         7.1330   -5.3240   -0.0300 h1        1 MOL      0.041750
    182 H89         7.6750   -4.3940    2.0610 hn        1 MOL      0.299907
    183 Ca1        -5.9030   -4.7320    0.4540 Ca        1 MOL      1.688704
    184 O25        -4.4450   -5.4700    2.6490 oh        1 MOL     -0.819777
    185 H90        -4.7150   -5.6630    3.5370 ho        1 MOL      0.406452
    186 H91        -3.4910   -5.4360    2.6880 ho        1 MOL      0.406452
    187 O26        -2.6990   -4.6450    0.3510 oh        1 MOL     -0.819777
    188 H92        -2.1210   -4.6820    1.1140 ho        1 MOL      0.406452
    189 H93        -2.9480   -5.5640    0.1940 ho        1 MOL      0.406452
    190 O27        -6.1890   -5.0130   -2.3680 oh        1 MOL     -0.819777
    191 H94        -5.7000   -4.2520   -2.6600 ho        1 MOL      0.406452
    192 H95        -6.4820   -5.4330   -3.1850 ho        1 MOL      0.406452
    193 O28        -4.7690   -2.8100   -0.8710 oh        1 MOL     -0.819777
    194 H96        -5.0500   -2.0960   -1.4510 ho        1 MOL      0.406452
    195 H97        -4.1750   -2.3950   -0.2480 ho        1 MOL      0.406452
@<TRIPOS>BOND
     1    1    2 1   
     2    1    4 1   
     3    1    5 1   
     4    1    6 1   
     5    2    3 2   
     6    2    7 1   
     7    7    8 1   
     8    7   15 1   
     9    8    9 1   
    10    8   11 1   
    11    8   16 1   
    12    9   10 2   
    13    9   19 1   
    14   11   12 1   
    15   11   17 1   
    16   11   18 1   
    17   12   13 1   
    18   12   14 1   
    19   19   20 1   
    20   19   28 1   
    21   20   21 1   
    22   20   23 1   
    23   20   29 1   
    24   21   22 2   
    25   21   41 1   
    26   23   24 1   
    27   23   30 1   
    28   23   31 1   
    29   24   25 1   
    30   24   32 1   
    31   24   33 1   
    32   25   26 1   
    33   25   34 1   
    34   25   35 1   
    35   26   27 1   
    36   26   36 1   
    37   26   37 1   
    38   27   38 1   
    39   27   39 1   
    40   27   40 1   
    41   41   42 1   
    42   41   49 1   
    43   42   43 1   
    44   42   45 1   
    45   42   50 1   
    46   43   44 2   
    47   43   53 1   
    48   45   46 1   
    49   45   51 1   
    50   45   52 1   
    51   46   47 1   
    52   46   48 1   
    53   53   54 1   
    54   53   57 1   
    55   54   55 1   
    56   54   58 1   
    57   54   59 1   
    58   55   56 2   
    59   55   60 1   
    60   60   61 1   
    61   60   68 1   
    62   61   62 1   
    63   61   64 1   
    64   61   69 1   
    65   62   63 2   
    66   62   72 1   
    67   64   65 1   
    68   64   70 1   
    69   64   71 1   
    70   65   66 1   
    71   65   67 1   
    72   72   73 1   
    73   72   76 1   
    74   73   74 1   
    75   73   77 1   
    76   73   78 1   
    77   74   75 2   
    78   74   79 1   
    79   79   80 1   
    80   79   86 1   
    81   80   81 1   
    82   80   83 1   
    83   80   87 1   
    84   81   82 2   
    85   81   93 1   
    86   83   84 1   
    87   83   85 1   
    88   83   88 1   
    89   84   90 1   
    90   84   91 1   
    91   84   92 1   
    92   85   89 1   
    93   93   94 1   
    94   93  101 1   
    95   94   95 1   
    96   94   97 1   
    97   94  102 1   
    98   95   96 2   
    99   95  112 1   
   100   97   98 1   
   101   97   99 1   
   102   97  103 1   
   103   98  100 1   
   104   98  104 1   
   105   98  105 1   
   106   99  106 1   
   107   99  107 1   
   108   99  108 1   
   109  100  109 1   
   110  100  110 1   
   111  100  111 1   
   112  112  113 1   
   113  112  119 1   
   114  113  114 1   
   115  113  116 1   
   116  113  120 1   
   117  114  115 2   
   118  114  126 1   
   119  116  117 1   
   120  116  118 1   
   121  116  121 1   
   122  117  123 1   
   123  117  124 1   
   124  117  125 1   
   125  118  122 1   
   126  126  127 1   
   127  126  133 1   
   128  127  128 1   
   129  127  130 1   
   130  127  134 1   
   131  128  129 2   
   132  128  140 1   
   133  130  131 1   
   134  130  132 1   
   135  130  135 1   
   136  131  137 1   
   137  131  138 1   
   138  131  139 1   
   139  132  136 1   
   140  140  141 1   
   141  140  149 1   
   142  141  142 1   
   143  141  144 1   
   144  141  150 1   
   145  142  143 2   
   146  142  162 1   
   147  144  145 1   
   148  144  151 1   
   149  144  152 1   
   150  145  146 1   
   151  145  153 1   
   152  145  154 1   
   153  146  147 1   
   154  146  155 1   
   155  146  156 1   
   156  147  148 1   
   157  147  157 1   
   158  147  158 1   
   159  148  159 1   
   160  148  160 1   
   161  148  161 1   
   162  162  163 1   
   163  162  171 1   
   164  163  164 1   
   165  163  166 1   
   166  163  172 1   
   167  164  165 2   
   168  164  177 1   
   169  166  167 1   
   170  166  173 1   
   171  166  174 1   
   172  167  168 1   
   173  167  175 1   
   174  167  176 1   
   175  168  169 1   
   176  168  170 1   
   177  177  178 1   
   178  177  182 1   
   179  178  179 1   
   180  178  180 1   
   181  178  181 1   
   182  184  185 1   
   183  184  186 1   
   184  187  188 1   
   185  187  189 1   
   186  190  191 1   
   187  190  192 1   
   188  193  194 1   
   189  193  195 1   
@<TRIPOS>SUBSTRUCTURE
     1 MOL         1 TEMP              0 ****  ****    0 ROOT
