@<TRIPOS>MOLECULE
MOL
  195   189     1     0     0
SMALL
resp


@<TRIPOS>ATOM
      1 C1         -5.0420   -3.0780    2.7890 c3        1 MOL      0.068648
      2 C2         -4.1430   -3.3460    1.5870 c         1 MOL      0.563919
      3 O1         -3.3420   -2.4690    1.2100 o         1 MOL     -0.490968
      4 H1         -4.4320   -3.0030    3.6890 hc        1 MOL     -0.044600
      5 H2         -5.5820   -2.1430    2.6380 hc        1 MOL     -0.044600
      6 H3         -5.7540   -3.8960    2.9010 hc        1 MOL     -0.044600
      7 N1         -4.2190   -4.5150    0.9090 n         1 MOL     -0.649394
      8 C3         -3.4210   -4.7330   -0.2230 c3        1 MOL     -0.311815
      9 C4         -1.9420   -4.5910   -0.0220 c         1 MOL      0.780812
     10 O2         -1.3010   -4.2640   -0.9760 o         1 MOL     -0.505063
     11 C5         -4.0160   -3.9910   -1.4180 c3        1 MOL     -0.151188
     12 C6         -5.5490   -4.0220   -1.3730 c         1 MOL      0.727632
     13 O3         -6.1450   -2.9460   -1.5000 o         1 MOL     -0.722393
     14 O4         -6.1290   -5.1220   -1.4260 o         1 MOL     -0.722393
     15 H4         -4.9090   -5.1860    1.1960 hn        1 MOL      0.356770
     16 H5         -3.5450   -5.7650   -0.5560 h1        1 MOL      0.144185
     17 H6         -3.6370   -4.4650   -2.3260 hc        1 MOL      0.131810
     18 H7         -3.7090   -2.9390   -1.3890 hc        1 MOL      0.131810
     19 N2         -1.4120   -4.7120    1.1940 n         1 MOL     -0.423846
     20 C7         -0.0420   -4.5380    1.5360 c3        1 MOL     -0.567825
     21 C8          0.9330   -5.3500    0.5540 c         1 MOL      0.290866
     22 O5          0.6320   -6.4700    0.2190 o         1 MOL     -0.493810
     23 C9          0.3190   -4.9690    2.9700 c3        1 MOL      0.390586
     24 C10         0.1040   -6.4920    3.2150 c3        1 MOL     -0.117130
     25 C11        -0.6260   -4.2510    3.8940 c3        1 MOL     -0.150898
     26 C12         0.6670   -7.0200    4.5320 c3        1 MOL      0.114030
     27 H8         -2.0100   -5.0260    1.9370 hn        1 MOL      0.371094
     28 H9          0.0260   -3.4690    1.3520 h1        1 MOL      0.233759
     29 H10         1.3620   -4.7170    3.1850 hc        1 MOL      0.023654
     30 H11         0.5290   -7.1190    2.4300 hc        1 MOL      0.037989
     31 H12        -0.9760   -6.6690    3.1620 hc        1 MOL      0.037989
     32 H13        -1.6230   -4.6230    3.6640 hc        1 MOL      0.021629
     33 H14        -0.2620   -4.4240    4.9020 hc        1 MOL      0.021629
     34 H15        -0.5120   -3.1770    3.7840 hc        1 MOL      0.021629
     35 H16        -0.0470   -6.7700    5.3130 hc        1 MOL     -0.042514
     36 H17         0.8040   -8.1000    4.5700 hc        1 MOL     -0.042514
     37 H18         1.6010   -6.5350    4.8340 hc        1 MOL     -0.042514
     38 N3          2.1540   -4.9240    0.2900 n         1 MOL     -0.185636
     39 C13         2.7260   -3.5900    0.5820 c3        1 MOL      0.029490
     40 C14         2.5340   -2.6030   -0.6170 c         1 MOL      0.188730
     41 O6          3.1420   -1.5150   -0.6280 o         1 MOL     -0.404339
     42 C15         4.2050   -3.8350    0.8970 c3        1 MOL     -0.356998
     43 C16         4.9420   -4.6220   -0.2490 c         1 MOL      0.655807
     44 O7          4.5200   -4.5170   -1.4220 o         1 MOL     -0.657467
     45 O8          5.9520   -5.2780    0.0610 o         1 MOL     -0.657467
     46 H19         2.7060   -5.5500   -0.2810 hn        1 MOL      0.273013
     47 H20         2.1850   -3.1570    1.4300 h1        1 MOL      0.069852
     48 H21         4.2610   -4.4220    1.8200 hc        1 MOL      0.099392
     49 H22         4.7400   -2.8860    1.0000 hc        1 MOL      0.099392
     50 N4          1.7880   -3.0740   -1.5920 n         1 MOL     -0.107676
     51 C17         1.6660   -2.6010   -2.9870 c3        1 MOL     -0.247103
     52 C18         2.9380   -2.6140   -3.7760 c         1 MOL      0.599150
     53 O9          2.9380   -3.3090   -4.8060 o         1 MOL     -0.597091
     54 H23         1.6200   -4.0620   -1.4680 hn        1 MOL      0.276031
     55 H24         1.2130   -1.6190   -3.1110 h1        1 MOL      0.123000
     56 H25         0.9750   -3.2370   -3.5580 h1        1 MOL      0.123000
     57 N5          3.9260   -1.8740   -3.3240 n         1 MOL     -0.397917
     58 C19         5.2440   -1.3910   -3.8540 c3        1 MOL      0.250258
     59 C20         6.3510   -1.4730   -2.7930 c         1 MOL      0.426635
     60 O10         7.5390   -1.2370   -3.0710 o         1 MOL     -0.595001
     61 C21         5.2430    0.0720   -4.3260 c3        1 MOL     -0.267091
     62 C22         4.6040    1.0920   -3.4000 c         1 MOL      0.833087
     63 O11         5.1850    1.2750   -2.3200 o         1 MOL     -0.713741
     64 O12         3.5390    1.7180   -3.6490 o         1 MOL     -0.713741
     65 H26         3.7660   -1.4430   -2.4230 hn        1 MOL      0.216764
     66 H27         5.6060   -2.0290   -4.6570 h1        1 MOL      0.047206
     67 H28         4.7480    0.0840   -5.2990 hc        1 MOL      0.013839
     68 H29         6.2970    0.3300   -4.4200 hc        1 MOL      0.013839
     69 N6          6.0290   -1.9690   -1.5420 n         1 MOL     -0.190696
     70 C23         7.0480   -2.0070   -0.4590 c3        1 MOL      0.066048
     71 C24         7.3360   -0.7600    0.2900 c         1 MOL      0.416937
     72 O13         7.9010   -0.9110    1.3660 o         1 MOL     -0.571680
     73 H30         5.1410   -2.4340   -1.4320 hn        1 MOL      0.124107
     74 H31         8.0040   -2.3720   -0.8170 h1        1 MOL      0.052248
     75 H32         6.7880   -2.7920    0.2560 h1        1 MOL      0.052248
     76 N7          7.1250    0.4640   -0.3140 n         1 MOL     -0.111062
     77 C25         7.5270    1.8210    0.0130 c3        1 MOL      0.077051
     78 C26         7.1910    2.3820    1.4080 c         1 MOL      0.391202
     79 O14         7.8000    3.3770    1.7420 o         1 MOL     -0.488876
     80 C27         8.9770    2.0640   -0.4770 c3        1 MOL      0.070534
     81 C28         9.1700    1.6670   -1.8880 c3        1 MOL     -0.093825
     82 C29        10.4280    2.3040   -2.5170 c         1 MOL      0.636380
     83 N8         10.8450    1.7990   -3.6770 n         1 MOL     -0.825618
     84 O15        11.0320    3.2380   -1.9880 o         1 MOL     -0.572634
     85 H33         6.5890    0.4280   -1.1690 hn        1 MOL      0.071412
     86 H34         6.8660    2.3890   -0.6420 h1        1 MOL      0.100637
     87 H35         9.7080    1.5340    0.1400 hc        1 MOL     -0.021714
     88 H36         9.1160    3.1400   -0.3810 hc        1 MOL     -0.021714
     89 H37         8.3050    2.0290   -2.4400 hc        1 MOL      0.052247
     90 H38         9.3570    0.5920   -1.9770 hc        1 MOL      0.052247
     91 H39        10.2910    1.0870   -4.1360 hn        1 MOL      0.354506
     92 H40        11.7030    2.0800   -4.1300 hn        1 MOL      0.354506
     93 N9          6.2670    1.6100    2.0820 n         1 MOL     -0.236587
     94 C30         5.7600    1.7880    3.4960 c3        1 MOL     -0.123086
     95 C31         4.3970    2.4930    3.5470 c         1 MOL      0.633446
     96 O16         4.0720    3.1960    4.4950 o         1 MOL     -0.580632
     97 C32         5.7510    0.5230    4.4340 c3        1 MOL      0.418087
     98 C33         4.9870   -0.7270    3.8540 c3        1 MOL     -0.369062
     99 C34         7.1850    0.1260    4.7980 c3        1 MOL     -0.369062
    100 H41         5.8590    0.8770    1.5260 hn        1 MOL      0.123089
    101 H42         6.4400    2.5370    3.9090 h1        1 MOL      0.061093
    102 H43         5.2690    0.8660    5.3440 hc        1 MOL     -0.049818
    103 H44         3.9940   -0.3140    3.6980 hc        1 MOL      0.077612
    104 H45         5.5320   -0.8620    2.9180 hc        1 MOL      0.077612
    105 H46         5.1500   -1.5220    4.5910 hc        1 MOL      0.077612
    106 H47         7.0350   -0.5720    5.6240 hc        1 MOL      0.077612
    107 H48         7.7700   -0.3620    4.0190 hc        1 MOL      0.077612
    108 H49         7.7290    0.9490    5.2530 hc        1 MOL      0.077612
    109 N10         3.5320    2.2080    2.5840 n         1 MOL     -0.672132
    110 C35         2.1660    2.6090    2.5880 c3        1 MOL      0.524687
    111 C36         1.8810    3.5450    1.3250 c         1 MOL      0.311690
    112 O17         2.7880    4.0020    0.5890 o         1 MOL     -0.490541
    113 C37         1.3130    1.2780    2.7470 c3        1 MOL     -0.348024
    114 C38         1.4970    0.4860    4.0350 c         1 MOL      0.663649
    115 N11         0.9070   -0.6800    4.0850 n         1 MOL     -0.779373
    116 O18         2.0220    0.9520    5.0510 o         1 MOL     -0.536404
    117 H50         3.8170    1.5450    1.8700 hn        1 MOL      0.348266
    118 H51         1.8410    3.2210    3.4290 h1        1 MOL     -0.014614
    119 H52         1.6430    0.6460    1.9190 hc        1 MOL      0.113289
    120 H53         0.2370    1.4570    2.6980 hc        1 MOL      0.113289
    121 H54         0.2500   -0.9980    3.3760 hn        1 MOL      0.342780
    122 H55         1.0110   -1.1610    4.9710 hn        1 MOL      0.342780
    123 N12         0.6690    3.5160    0.8590 n         1 MOL     -0.238840
    124 C39         0.0970    4.2190   -0.3120 c3        1 MOL     -0.073959
    125 C40        -1.4700    4.4690   -0.0700 c         1 MOL      0.550586
    126 O19        -2.1560    3.8440    0.7560 o         1 MOL     -0.531620
    127 C41         0.4250    3.5370   -1.6720 c3        1 MOL      0.019353
    128 C42        -0.2050    2.1360   -1.8300 ca        1 MOL      0.138452
    129 C43         0.3240    1.0720   -1.1350 ca        1 MOL     -0.108583
    130 C44        -1.3020    1.9880   -2.6540 ca        1 MOL     -0.108583
    131 C45        -0.2600   -0.2010   -1.2770 ca        1 MOL     -0.451676
    132 C46        -1.8890    0.6750   -2.7460 ca        1 MOL     -0.451676
    133 C47        -1.3860   -0.4360   -2.0460 ca        1 MOL      0.567292
    134 O20        -1.7790   -1.6780   -2.2790 oh        1 MOL     -0.557813
    135 H56         0.0030    3.0450    1.4530 hn        1 MOL      0.130721
    136 H57         0.6540    5.1540   -0.4060 h1        1 MOL      0.103770
    137 H58         1.5060    3.4320   -1.7770 hc        1 MOL      0.031613
    138 H59         0.1310    4.1360   -2.5320 hc        1 MOL      0.031613
    139 H60         1.1630    1.2710   -0.4730 ha        1 MOL      0.126371
    140 H61        -1.8270    2.8280   -3.0740 ha        1 MOL      0.126371
    141 H62         0.2310   -1.0290   -0.7800 ha        1 MOL      0.185992
    142 H63        -2.7360    0.5830   -3.4040 ha        1 MOL      0.185992
    143 H64        -1.3650   -2.2420   -1.6310 ho        1 MOL      0.331605
    144 N13        -2.0750    5.4410   -0.7840 n         1 MOL     -0.582830
    145 C48        -3.4980    5.8330   -0.6660 c3        1 MOL      0.374575
    146 C49        -4.2890    5.1100   -1.7140 c         1 MOL      0.593841
    147 O21        -4.0670    5.4480   -2.8880 o         1 MOL     -0.609933
    148 C50        -3.7000    7.2890   -0.8360 c3        1 MOL     -0.191310
    149 C51        -3.1490    8.0870    0.3580 c3        1 MOL     -0.163950
    150 C52        -3.6070    9.6200    0.2940 c         1 MOL      0.703181
    151 O22        -4.5970   10.1220    0.8520 o         1 MOL     -0.688272
    152 O23        -2.8160   10.3330   -0.3760 o         1 MOL     -0.688272
    153 H65        -1.5300    5.8660   -1.5140 hn        1 MOL      0.317024
    154 H66        -3.9740    5.6150    0.2900 h1        1 MOL     -0.043937
    155 H67        -4.7530    7.5470   -0.9750 hc        1 MOL      0.067965
    156 H68        -3.1610    7.6050   -1.7240 hc        1 MOL      0.067965
    157 H69        -2.0650    8.0320    0.5180 hc        1 MOL      0.020216
    158 H70        -3.5280    7.6760    1.2910 hc        1 MOL      0.020216
    159 N14        -5.3000    4.3100   -1.4480 n         1 MOL     -0.606400
    160 C53        -5.5300    3.6180   -0.1990 c3        1 MOL     -0.061310
    161 C54        -6.1040    4.5090    0.8920 c         1 MOL      0.609200
    162 O24        -7.0500    5.2420    0.5960 o         1 MOL     -0.565060
    163 C55        -6.5550    2.4410   -0.4990 c3        1 MOL      0.090429
    164 C56        -6.8950    1.6180    0.7640 c3        1 MOL     -0.537659
    165 C57        -7.5100    0.3420    0.2820 c         1 MOL      0.731248
    166 O25        -8.6370    0.3520   -0.3330 o         1 MOL     -0.662918
    167 O26        -6.8670   -0.7260    0.3620 o         1 MOL     -0.662918
    168 H71        -6.0810    4.2540   -2.0890 hn        1 MOL      0.351908
    169 H72        -4.6040    3.2490    0.2410 h1        1 MOL      0.075787
    170 H73        -6.1530    1.8440   -1.3220 hc        1 MOL      0.055695
    171 H74        -7.4060    2.8800   -1.0070 hc        1 MOL      0.055695
    172 H75        -7.6560    2.1150    1.3740 hc        1 MOL      0.134988
    173 H76        -5.9880    1.3260    1.2850 hc        1 MOL      0.134988
    174 N15        -5.6130    4.2960    2.1170 n         1 MOL     -0.275484
    175 C58        -5.9710    4.8830    3.4820 c3        1 MOL     -0.235278
    176 H77        -5.6440    5.9220    3.5280 h1        1 MOL      0.106925
    177 H78        -7.0500    4.8360    3.6270 h1        1 MOL      0.106925
    178 H79        -5.4730    4.3120    4.2660 h1        1 MOL      0.106925
    179 H80        -4.8830    3.6030    2.0430 hn        1 MOL      0.241924
    180 Ca1        -8.4970   -2.4090   -0.6280 Ca        1 MOL      1.657916
    181 O27       -10.3470   -4.3410    0.4690 oh        1 MOL     -0.797311
    182 H81       -10.4660   -5.2700    0.6570 ho        1 MOL      0.372300
    183 H82       -10.6530   -3.8960    1.2660 ho        1 MOL      0.372300
    184 O28       -11.0930   -1.7250   -1.8540 oh        1 MOL     -0.797311
    185 H83       -11.1090   -2.0100   -2.7640 ho        1 MOL      0.372300
    186 H84       -11.8740   -1.1630   -1.7750 ho        1 MOL      0.372300
    187 O29        -8.4590   -4.2110   -2.5340 oh        1 MOL     -0.797311
    188 H85        -8.9720   -4.8490   -3.0320 ho        1 MOL      0.372300
    189 H86        -7.7130   -4.7100   -2.1930 ho        1 MOL      0.372300
    190 O30        -9.5630   -1.5810    1.7560 oh        1 MOL     -0.797311
    191 H87        -9.9170   -2.3130    2.2540 ho        1 MOL      0.372300
    192 H88       -10.1000   -0.8310    2.0040 ho        1 MOL      0.372300
    193 O31        -8.4820   -1.1430   -3.1360 oh        1 MOL     -0.797311
    194 H89        -9.3290   -1.0050   -3.5590 ho        1 MOL      0.372300
    195 H90        -7.8350   -0.8720   -3.7840 ho        1 MOL      0.372300
@<TRIPOS>BOND
     1    1    2 1   
     2    1    4 1   
     3    1    5 1   
     4    1    6 1   
     5    2    3 2   
     6    2    7 1   
     7    7    8 1   
     8    7   15 1   
     9    8    9 1   
    10    8   11 1   
    11    8   16 1   
    12    9   10 2   
    13    9   19 1   
    14   11   12 1   
    15   11   17 1   
    16   11   18 1   
    17   12   13 1   
    18   12   14 1   
    19   19   20 1   
    20   19   27 1   
    21   20   21 1   
    22   20   23 1   
    23   20   28 1   
    24   21   22 2   
    25   21   38 1   
    26   23   24 1   
    27   23   25 1   
    28   23   29 1   
    29   24   26 1   
    30   24   30 1   
    31   24   31 1   
    32   25   32 1   
    33   25   33 1   
    34   25   34 1   
    35   26   35 1   
    36   26   36 1   
    37   26   37 1   
    38   38   39 1   
    39   38   46 1   
    40   39   40 1   
    41   39   42 1   
    42   39   47 1   
    43   40   41 2   
    44   40   50 1   
    45   42   43 1   
    46   42   48 1   
    47   42   49 1   
    48   43   44 1   
    49   43   45 1   
    50   50   51 1   
    51   50   54 1   
    52   51   52 1   
    53   51   55 1   
    54   51   56 1   
    55   52   53 2   
    56   52   57 1   
    57   57   58 1   
    58   57   65 1   
    59   58   59 1   
    60   58   61 1   
    61   58   66 1   
    62   59   60 2   
    63   59   69 1   
    64   61   62 1   
    65   61   67 1   
    66   61   68 1   
    67   62   63 1   
    68   62   64 1   
    69   69   70 1   
    70   69   73 1   
    71   70   71 1   
    72   70   74 1   
    73   70   75 1   
    74   71   72 2   
    75   71   76 1   
    76   76   77 1   
    77   76   85 1   
    78   77   78 1   
    79   77   80 1   
    80   77   86 1   
    81   78   79 2   
    82   78   93 1   
    83   80   81 1   
    84   80   87 1   
    85   80   88 1   
    86   81   82 1   
    87   81   89 1   
    88   81   90 1   
    89   82   83 1   
    90   82   84 2   
    91   83   91 1   
    92   83   92 1   
    93   93   94 1   
    94   93  100 1   
    95   94   95 1   
    96   94   97 1   
    97   94  101 1   
    98   95   96 2   
    99   95  109 1   
   100   97   98 1   
   101   97   99 1   
   102   97  102 1   
   103   98  103 1   
   104   98  104 1   
   105   98  105 1   
   106   99  106 1   
   107   99  107 1   
   108   99  108 1   
   109  109  110 1   
   110  109  117 1   
   111  110  111 1   
   112  110  113 1   
   113  110  118 1   
   114  111  112 2   
   115  111  123 1   
   116  113  114 1   
   117  113  119 1   
   118  113  120 1   
   119  114  115 1   
   120  114  116 2   
   121  115  121 1   
   122  115  122 1   
   123  123  124 1   
   124  123  135 1   
   125  124  125 1   
   126  124  127 1   
   127  124  136 1   
   128  125  126 2   
   129  125  144 1   
   130  127  128 1   
   131  127  137 1   
   132  127  138 1   
   133  128  129 ar  
   134  128  130 ar  
   135  129  131 ar  
   136  129  139 1   
   137  130  132 ar  
   138  130  140 1   
   139  131  133 ar  
   140  131  141 1   
   141  132  133 ar  
   142  132  142 1   
   143  133  134 1   
   144  134  143 1   
   145  144  145 1   
   146  144  153 1   
   147  145  146 1   
   148  145  148 1   
   149  145  154 1   
   150  146  147 2   
   151  146  159 1   
   152  148  149 1   
   153  148  155 1   
   154  148  156 1   
   155  149  150 1   
   156  149  157 1   
   157  149  158 1   
   158  150  151 1   
   159  150  152 1   
   160  159  160 1   
   161  159  168 1   
   162  160  161 1   
   163  160  163 1   
   164  160  169 1   
   165  161  162 2   
   166  161  174 1   
   167  163  164 1   
   168  163  170 1   
   169  163  171 1   
   170  164  165 1   
   171  164  172 1   
   172  164  173 1   
   173  165  166 1   
   174  165  167 1   
   175  174  175 1   
   176  174  179 1   
   177  175  176 1   
   178  175  177 1   
   179  175  178 1   
   180  181  182 1   
   181  181  183 1   
   182  184  185 1   
   183  184  186 1   
   184  187  188 1   
   185  187  189 1   
   186  190  191 1   
   187  190  192 1   
   188  193  194 1   
   189  193  195 1   
@<TRIPOS>SUBSTRUCTURE
     1 MOL         1 TEMP              0 ****  ****    0 ROOT
