@<TRIPOS>MOLECULE
MOL
  188   182     1     0     0
SMALL
resp


@<TRIPOS>ATOM
      1 C1         -6.3280   -0.9230    3.1310 c3        1 MOL     -0.446823
      2 C2         -7.0040   -1.5050    1.9360 c         1 MOL      0.643340
      3 O1         -6.3740   -1.4610    0.8290 o         1 MOL     -0.551306
      4 H1         -7.0160   -0.9290    3.9760 hc        1 MOL      0.110267
      5 H2         -5.4470   -1.5180    3.3760 hc        1 MOL      0.110267
      6 H3         -6.0270    0.1020    2.9150 hc        1 MOL      0.110267
      7 N1         -8.2950   -1.9490    1.9640 n         1 MOL     -0.486463
      8 C3         -9.1900   -2.3310    0.8330 c3        1 MOL      0.209346
      9 C4         -9.1860   -1.2500   -0.2670 c         1 MOL      0.315971
     10 O2         -9.6360   -1.6280   -1.3580 o         1 MOL     -0.436564
     11 C5         -8.8320   -3.7080    0.2460 c3        1 MOL     -0.248831
     12 C6        -10.0550   -4.5540   -0.0730 c         1 MOL      0.644128
     13 O3        -11.1570   -4.0620   -0.4620 o         1 MOL     -0.615258
     14 O4         -9.9320   -5.8100   -0.0750 o         1 MOL     -0.615258
     15 H4         -8.6770   -2.0680    2.8990 hn        1 MOL      0.285519
     16 H5        -10.2080   -2.4560    1.1950 h1        1 MOL      0.035677
     17 H6         -8.0930   -4.1690    0.9170 hc        1 MOL      0.088114
     18 H7         -8.2230   -3.5790   -0.6550 hc        1 MOL      0.088114
     19 N2         -8.7670   -0.0200    0.0180 n         1 MOL     -0.236802
     20 C7         -8.7250    1.1810   -0.7980 c3        1 MOL      0.118262
     21 C8         -7.3470    1.8080   -0.9250 c         1 MOL      0.465978
     22 O5         -7.2610    2.6680   -1.7520 o         1 MOL     -0.532697
     23 C9         -9.7340    2.1640   -0.2210 c3        1 MOL      0.068024
     24 C10        -9.3710    2.6000    1.2730 c3        1 MOL      0.038080
     25 C11       -10.5220    3.3240    1.9530 c3        1 MOL     -0.078916
     26 C12        -9.9900    3.9040    3.2850 c3        1 MOL      0.128076
     27 N3        -10.6880    5.1480    3.7100 n4        1 MOL     -0.130631
     28 H8         -8.4460    0.1190    0.9700 hn        1 MOL      0.104478
     29 H9         -9.2310    0.9390   -1.7330 h1        1 MOL      0.089629
     30 H10       -10.7120    1.6830   -0.1570 hc        1 MOL     -0.009177
     31 H11        -9.7990    3.0650   -0.8290 hc        1 MOL     -0.009177
     32 H12        -8.5330    3.2900    1.2540 hc        1 MOL     -0.008564
     33 H13        -9.1280    1.7100    1.8540 hc        1 MOL     -0.008564
     34 H14       -11.3690    2.6280    1.9720 hc        1 MOL      0.045009
     35 H15       -10.7610    4.2040    1.3540 hc        1 MOL      0.045009
     36 H16        -8.9200    4.1140    3.3830 hx        1 MOL      0.025260
     37 H17       -10.2600    3.1730    4.0470 hx        1 MOL      0.025260
     38 H18       -11.6790    4.9950    3.7540 hn        1 MOL      0.178412
     39 H19       -10.4440    5.2910    4.6740 hn        1 MOL      0.178412
     40 H20       -10.4190    5.9300    3.1300 hn        1 MOL      0.178412
     41 N4         -6.2510    1.4220   -0.2800 n         1 MOL     -0.322827
     42 C13        -4.9470    1.9710   -0.4440 c3        1 MOL     -0.053855
     43 C14        -4.4770    2.1740   -1.9170 c         1 MOL      0.499813
     44 O6         -4.6740    1.3110   -2.7660 o         1 MOL     -0.406475
     45 C15        -4.0130    1.0710    0.3940 c3        1 MOL     -0.057380
     46 C16        -2.4840    1.3760    0.3210 c         1 MOL      0.641764
     47 O7         -1.8480    1.9530    1.2020 o         1 MOL     -0.764557
     48 O8         -1.9170    1.2090   -0.7690 o         1 MOL     -0.764557
     49 H21        -6.3760    0.6170    0.3060 hn        1 MOL      0.193919
     50 H22        -5.0590    2.9520    0.0180 h1        1 MOL      0.017890
     51 H23        -4.2440    0.0180    0.2410 hc        1 MOL      0.063031
     52 H24        -4.2670    1.1700    1.4440 hc        1 MOL      0.063031
     53 N5         -3.7780    3.2970   -2.1900 n         1 MOL     -0.318262
     54 C17        -3.3190    3.6150   -3.5660 c3        1 MOL     -0.238001
     55 C18        -2.4970    2.5270   -4.2420 c         1 MOL      0.618623
     56 O9         -2.3690    2.6570   -5.4880 o         1 MOL     -0.570111
     57 H25        -3.7980    4.0480   -1.5160 hn        1 MOL      0.291214
     58 H26        -2.7100    4.5100   -3.3850 h1        1 MOL      0.119939
     59 H27        -4.1960    3.8560   -4.1650 h1        1 MOL      0.119939
     60 N6         -1.9670    1.5010   -3.6230 n         1 MOL     -0.462579
     61 C19        -1.2830    0.4460   -4.3800 c3        1 MOL      0.110115
     62 C20        -1.4590   -0.9400   -3.6290 c         1 MOL      0.476256
     63 O10        -0.5760   -1.7590   -3.6850 o         1 MOL     -0.530990
     64 C21         0.2770    0.8040   -4.5790 c3        1 MOL     -0.307796
     65 C22         1.1380    1.1880   -3.3300 c         1 MOL      0.754043
     66 N7          2.4500    1.1510   -3.5570 n         1 MOL     -0.784964
     67 O11         0.7050    1.5980   -2.2190 o         1 MOL     -0.684941
     68 H28        -2.2140    1.3430   -2.6530 hn        1 MOL      0.230001
     69 H29        -1.7650    0.2830   -5.3400 h1        1 MOL      0.106139
     70 H30         0.2380    1.6350   -5.2830 hc        1 MOL      0.112440
     71 H31         0.6420   -0.0080   -5.2050 hc        1 MOL      0.112440
     72 H32         2.6860    0.7400   -4.4520 hn        1 MOL      0.356350
     73 H33         3.0720    0.9610   -2.7860 hn        1 MOL      0.356350
     74 N8         -2.6380   -1.1050   -2.9250 n         1 MOL     -0.238683
     75 C23        -3.0770   -2.3340   -2.3700 c3        1 MOL     -0.142970
     76 C24        -2.3980   -2.7280   -1.0590 c         1 MOL      0.651093
     77 O12        -2.5060   -3.9050   -0.7460 o         1 MOL     -0.555134
     78 H34        -3.2740   -0.3260   -2.8610 hn        1 MOL      0.177002
     79 H35        -2.6990   -3.0910   -3.0580 h1        1 MOL      0.113070
     80 H36        -4.1640   -2.4010   -2.3640 h1        1 MOL      0.113070
     81 N9         -1.7230   -1.8410   -0.2800 n         1 MOL     -0.590076
     82 C25        -0.8280   -2.2620    0.8940 c3        1 MOL      0.182521
     83 C26         0.5630   -1.6260    0.8230 c         1 MOL      0.337175
     84 O13         0.7650   -0.3930    0.4930 o         1 MOL     -0.542691
     85 C27        -1.5780   -1.9140    2.1980 c3        1 MOL     -0.329775
     86 C28        -0.7070   -1.9630    3.4180 ca        1 MOL      0.177639
     87 C29        -0.4210   -3.1630    3.9710 ca        1 MOL     -0.165028
     88 C30        -0.2820   -0.7610    3.9550 ca        1 MOL     -0.165028
     89 C31         0.4170   -3.1640    5.1320 ca        1 MOL     -0.273456
     90 C32         0.5580   -0.7490    5.1090 ca        1 MOL     -0.273456
     91 C33         0.8750   -1.9210    5.7610 ca        1 MOL      0.278090
     92 O14         1.7830   -2.0480    6.8230 oh        1 MOL     -0.424441
     93 H37        -1.7100   -0.8420   -0.4390 hn        1 MOL      0.411826
     94 H38        -0.7410   -3.3460    0.8570 h1        1 MOL      0.057833
     95 H39        -2.4060   -2.6200    2.2040 hc        1 MOL      0.130982
     96 H40        -2.0690   -0.9430    2.2660 hc        1 MOL      0.130982
     97 H41        -0.7900   -4.0980    3.5730 ha        1 MOL      0.145337
     98 H42        -0.4280    0.1830    3.4520 ha        1 MOL      0.145337
     99 H43         0.6950   -4.0790    5.6430 ha        1 MOL      0.154183
    100 H44         1.1620    0.1350    5.2830 ha        1 MOL      0.154183
    101 H45         1.9900   -1.1460    7.0650 ho        1 MOL      0.336497
    102 N10         1.5400   -2.4130    1.3280 n         1 MOL     -0.040002
    103 C34         2.9660   -2.0140    1.3860 c3        1 MOL     -0.608640
    104 C35         3.4170   -1.8430   -0.0280 c         1 MOL      0.529588
    105 O15         4.2180   -0.9520   -0.2970 o         1 MOL     -0.512243
    106 C36         3.8700   -3.0160    2.1890 c3        1 MOL      0.328394
    107 C37         3.6270   -2.7510    3.6680 c3        1 MOL      0.160404
    108 C38         5.3550   -2.7960    1.8810 c3        1 MOL     -0.319369
    109 C39         4.2160   -3.8910    4.6250 c3        1 MOL     -0.396934
    110 H46         1.3000   -3.3240    1.6930 hn        1 MOL      0.196407
    111 H47         3.1630   -1.0210    1.7750 h1        1 MOL      0.180289
    112 H48         3.6520   -4.0690    2.0400 hc        1 MOL     -0.034824
    113 H49         2.5680   -2.6310    3.8960 hc        1 MOL     -0.010018
    114 H50         4.0180   -1.7600    3.9000 hc        1 MOL     -0.010018
    115 H51         5.5770   -1.7350    1.8390 hc        1 MOL      0.094990
    116 H52         5.9850   -3.3010    2.6160 hc        1 MOL      0.094990
    117 H53         5.4790   -3.3480    0.9510 hc        1 MOL      0.094990
    118 H54         5.2940   -3.7610    4.5350 hc        1 MOL      0.101631
    119 H55         3.8900   -3.7020    5.6520 hc        1 MOL      0.101631
    120 H56         3.8450   -4.8830    4.3520 hc        1 MOL      0.101631
    121 N11         3.0100   -2.7540   -0.9200 n         1 MOL     -0.029444
    122 C40         3.2480   -2.6880   -2.3470 c3        1 MOL     -0.200827
    123 C41         4.7480   -2.8660   -2.7260 c         1 MOL      0.627881
    124 O16         5.1250   -2.5210   -3.9160 o         1 MOL     -0.552423
    125 C42         2.4040   -3.8330   -3.0310 c3        1 MOL      0.094172
    126 O17         2.6020   -5.0240   -2.3320 oh        1 MOL     -0.623876
    127 H57         2.3490   -3.4500   -0.5780 hn        1 MOL      0.196721
    128 H58         2.9450   -1.7180   -2.7430 h1        1 MOL      0.066518
    129 H59         2.8270   -3.9780   -4.0330 h1        1 MOL      0.078782
    130 H60         1.3530   -3.5740   -3.0660 h1        1 MOL      0.078782
    131 H61         2.8680   -5.6760   -2.9790 ho        1 MOL      0.437458
    132 N12         5.5900   -3.3990   -1.8110 n         1 MOL     -0.511079
    133 C43         7.0890   -3.4030   -1.7930 c3        1 MOL      0.444963
    134 C44         7.7410   -2.1200   -2.1660 c         1 MOL      0.319289
    135 O18         8.9810   -2.0670   -2.4150 o         1 MOL     -0.539958
    136 C45         7.5990   -4.5800   -2.6470 c3        1 MOL     -0.286933
    137 H62         5.1960   -3.6800   -0.9310 hn        1 MOL      0.183523
    138 H63         7.3940   -3.5760   -0.7670 h1        1 MOL      0.023490
    139 H64         7.6760   -4.4160   -3.7150 hc        1 MOL      0.071601
    140 H65         8.5880   -4.6990   -2.2130 hc        1 MOL      0.071601
    141 H66         7.0380   -5.5040   -2.4700 hc        1 MOL      0.071601
    142 N13         7.0840   -1.0050   -1.8700 n         1 MOL     -0.296130
    143 C46         7.6980    0.3590   -1.9820 c3        1 MOL      0.311125
    144 C47         7.8830    0.9110   -0.4960 c         1 MOL      0.512936
    145 O19         7.1990    0.3310    0.3870 o         1 MOL     -0.506769
    146 C48         6.7730    1.2040   -2.8800 c3        1 MOL     -0.290992
    147 H67         6.1870   -1.1600   -1.4460 hn        1 MOL      0.108470
    148 H68         8.6630    0.3960   -2.4740 h1        1 MOL      0.032528
    149 H69         7.3410    2.0730   -3.2130 hc        1 MOL      0.074580
    150 H70         6.5700    0.5630   -3.7350 hc        1 MOL      0.074580
    151 H71         5.8120    1.4080   -2.4010 hc        1 MOL      0.074580
    152 N14         8.8480    1.7590   -0.2020 n         1 MOL     -0.676797
    153 C49         9.3590    2.2280    1.0920 c3        1 MOL      0.032569
    154 C50         9.6570    1.0590    1.9830 c         1 MOL      0.438576
    155 O20         9.4770    1.1420    3.2030 o         1 MOL     -0.507787
    156 C51         8.4110    3.2770    1.7430 c3        1 MOL      0.314640
    157 C52         8.0730    4.5010    0.8680 c3        1 MOL     -0.227832
    158 C53         7.8910    5.8100    1.6240 c         1 MOL      0.664224
    159 O21         6.7460    6.3320    1.5360 o         1 MOL     -0.683251
    160 O22         8.8550    6.2170    2.3010 o         1 MOL     -0.683251
    161 H72         9.3160    2.2090   -0.9900 hn        1 MOL      0.339453
    162 H73        10.3070    2.7220    0.8820 h1        1 MOL      0.077981
    163 H74         8.8060    3.4280    2.7440 hc        1 MOL     -0.047310
    164 H75         7.4900    2.7140    1.8560 hc        1 MOL     -0.047310
    165 H76         7.1460    4.3340    0.3160 hc        1 MOL      0.000049
    166 H77         8.9410    4.6680    0.2180 hc        1 MOL      0.000049
    167 N15        10.3250    0.0570    1.4870 n         1 MOL     -0.238748
    168 C54        10.7370   -1.1930    2.2080 c3        1 MOL     -0.210680
    169 H78        11.2410   -1.8640    1.5120 h1        1 MOL      0.103541
    170 H79        11.4150   -0.9370    3.0210 h1        1 MOL      0.103541
    171 H80         9.8540   -1.6870    2.6130 h1        1 MOL      0.103541
    172 H81        10.5080    0.0610    0.4900 hn        1 MOL      0.232900
    173 Ca1         0.5260    2.5370    0.1160 Ca        1 MOL      1.825836
    174 O23        -0.2560    5.0150    1.4950 oh        1 MOL     -0.865163
    175 H82        -0.9970    5.6210    1.4960 ho        1 MOL      0.435587
    176 H83        -0.0100    4.9180    2.4270 ho        1 MOL      0.435587
    177 O24         2.1990    4.5780   -0.0400 oh        1 MOL     -0.865163
    178 H84         3.0250    5.0290   -0.1880 ho        1 MOL      0.435587
    179 H85         1.5610    5.2870    0.0750 ho        1 MOL      0.435587
    180 O25         3.0540    1.4710   -0.3690 oh        1 MOL     -0.865163
    181 H86         3.4050    0.5780   -0.3790 ho        1 MOL      0.435587
    182 H87         3.7210    1.9900   -0.8230 ho        1 MOL      0.435587
    183 O26        -0.2120    4.8360   -1.4500 oh        1 MOL     -0.865163
    184 H88        -1.0400    5.2390   -1.7250 ho        1 MOL      0.435587
    185 H89         0.3710    4.9610   -2.1910 ho        1 MOL      0.435587
    186 O27         1.5470    2.0110    2.4990 oh        1 MOL     -0.865163
    187 H90         2.3840    1.6300    2.2480 ho        1 MOL      0.435587
    188 H91         1.5680    2.0310    3.4570 ho        1 MOL      0.435587
@<TRIPOS>BOND
     1    1    2 1   
     2    1    4 1   
     3    1    5 1   
     4    1    6 1   
     5    2    3 2   
     6    2    7 1   
     7    7    8 1   
     8    7   15 1   
     9    8    9 1   
    10    8   11 1   
    11    8   16 1   
    12    9   10 2   
    13    9   19 1   
    14   11   12 1   
    15   11   17 1   
    16   11   18 1   
    17   12   13 1   
    18   12   14 1   
    19   19   20 1   
    20   19   28 1   
    21   20   21 1   
    22   20   23 1   
    23   20   29 1   
    24   21   22 2   
    25   21   41 1   
    26   23   24 1   
    27   23   30 1   
    28   23   31 1   
    29   24   25 1   
    30   24   32 1   
    31   24   33 1   
    32   25   26 1   
    33   25   34 1   
    34   25   35 1   
    35   26   27 1   
    36   26   36 1   
    37   26   37 1   
    38   27   38 1   
    39   27   39 1   
    40   27   40 1   
    41   41   42 1   
    42   41   49 1   
    43   42   43 1   
    44   42   45 1   
    45   42   50 1   
    46   43   44 2   
    47   43   53 1   
    48   45   46 1   
    49   45   51 1   
    50   45   52 1   
    51   46   47 1   
    52   46   48 1   
    53   53   54 1   
    54   53   57 1   
    55   54   55 1   
    56   54   58 1   
    57   54   59 1   
    58   55   56 2   
    59   55   60 1   
    60   60   61 1   
    61   60   68 1   
    62   61   62 1   
    63   61   64 1   
    64   61   69 1   
    65   62   63 2   
    66   62   74 1   
    67   64   65 1   
    68   64   70 1   
    69   64   71 1   
    70   65   66 1   
    71   65   67 2   
    72   66   72 1   
    73   66   73 1   
    74   74   75 1   
    75   74   78 1   
    76   75   76 1   
    77   75   79 1   
    78   75   80 1   
    79   76   77 2   
    80   76   81 1   
    81   81   82 1   
    82   81   93 1   
    83   82   83 1   
    84   82   85 1   
    85   82   94 1   
    86   83   84 2   
    87   83  102 1   
    88   85   86 1   
    89   85   95 1   
    90   85   96 1   
    91   86   87 ar  
    92   86   88 ar  
    93   87   89 ar  
    94   87   97 1   
    95   88   90 ar  
    96   88   98 1   
    97   89   91 ar  
    98   89   99 1   
    99   90   91 ar  
   100   90  100 1   
   101   91   92 1   
   102   92  101 1   
   103  102  103 1   
   104  102  110 1   
   105  103  104 1   
   106  103  106 1   
   107  103  111 1   
   108  104  105 2   
   109  104  121 1   
   110  106  107 1   
   111  106  108 1   
   112  106  112 1   
   113  107  109 1   
   114  107  113 1   
   115  107  114 1   
   116  108  115 1   
   117  108  116 1   
   118  108  117 1   
   119  109  118 1   
   120  109  119 1   
   121  109  120 1   
   122  121  122 1   
   123  121  127 1   
   124  122  123 1   
   125  122  125 1   
   126  122  128 1   
   127  123  124 2   
   128  123  132 1   
   129  125  126 1   
   130  125  129 1   
   131  125  130 1   
   132  126  131 1   
   133  132  133 1   
   134  132  137 1   
   135  133  134 1   
   136  133  136 1   
   137  133  138 1   
   138  134  135 2   
   139  134  142 1   
   140  136  139 1   
   141  136  140 1   
   142  136  141 1   
   143  142  143 1   
   144  142  147 1   
   145  143  144 1   
   146  143  146 1   
   147  143  148 1   
   148  144  145 2   
   149  144  152 1   
   150  146  149 1   
   151  146  150 1   
   152  146  151 1   
   153  152  153 1   
   154  152  161 1   
   155  153  154 1   
   156  153  156 1   
   157  153  162 1   
   158  154  155 2   
   159  154  167 1   
   160  156  157 1   
   161  156  163 1   
   162  156  164 1   
   163  157  158 1   
   164  157  165 1   
   165  157  166 1   
   166  158  159 1   
   167  158  160 1   
   168  167  168 1   
   169  167  172 1   
   170  168  169 1   
   171  168  170 1   
   172  168  171 1   
   173  174  175 1   
   174  174  176 1   
   175  177  178 1   
   176  177  179 1   
   177  180  181 1   
   178  180  182 1   
   179  183  184 1   
   180  183  185 1   
   181  186  187 1   
   182  186  188 1   
@<TRIPOS>SUBSTRUCTURE
     1 MOL         1 TEMP              0 ****  ****    0 ROOT
