@<TRIPOS>MOLECULE
MOL
  181   177     1     0     0
SMALL
resp


@<TRIPOS>ATOM
      1 C1        -11.0310    6.5410   -1.6060 c3        1 MOL     -0.443015
      2 C2         -9.8830    5.4910   -1.6760 c         1 MOL      0.778980
      3 O1         -9.0450    5.5040   -2.5360 o         1 MOL     -0.625434
      4 H1        -10.8190    7.3580   -2.2960 hc        1 MOL      0.110758
      5 H2        -11.9740    6.0690   -1.8840 hc        1 MOL      0.110758
      6 H3        -11.1050    6.9330   -0.5910 hc        1 MOL      0.110758
      7 N1         -9.8540    4.4700   -0.9250 n         1 MOL     -0.690865
      8 C3        -10.6300    4.2600    0.2710 c3        1 MOL      0.191745
      9 C4        -11.5970    3.1150    0.1790 c         1 MOL      0.488118
     10 O2        -12.6680    3.1900    0.8650 o         1 MOL     -0.597896
     11 C5         -9.5820    4.0300    1.4280 c3        1 MOL     -0.271687
     12 C6         -8.5790    2.9470    1.1980 c         1 MOL      0.838401
     13 O3         -7.9420    2.5410    2.2330 o         1 MOL     -0.793215
     14 O4         -8.3680    2.3610    0.1430 o         1 MOL     -0.793215
     15 H4         -9.0600    3.8640   -1.0650 hn        1 MOL      0.387207
     16 H5        -11.1720    5.1590    0.5660 h1        1 MOL      0.041466
     17 H6        -10.0470    3.7460    2.3680 hc        1 MOL      0.069794
     18 H7         -9.1720    5.0100    1.6780 hc        1 MOL      0.069794
     19 N2        -11.3580    2.1500   -0.6790 n         1 MOL     -0.385067
     20 C7        -12.1850    0.9380   -0.8930 c3        1 MOL      0.232205
     21 C8        -11.3600   -0.3290   -0.9000 c         1 MOL      0.452808
     22 O5        -11.6960   -1.2370   -1.6520 o         1 MOL     -0.483926
     23 C9        -12.8640    1.1730   -2.2890 c3        1 MOL     -0.371800
     24 H8        -10.4360    2.1310   -1.0750 hn        1 MOL      0.295008
     25 H9        -12.9070    0.8600   -0.0890 h1        1 MOL      0.029283
     26 H10       -12.0900    1.1210   -3.0600 hc        1 MOL      0.102181
     27 H11       -13.4410    0.2870   -2.5480 hc        1 MOL      0.102181
     28 H12       -13.3550    2.1460   -2.3610 hc        1 MOL      0.102181
     29 N3        -10.2940   -0.4680   -0.0390 n         1 MOL     -0.374331
     30 C10        -9.5130   -1.6790    0.0670 c3        1 MOL      0.039972
     31 C11        -8.6120   -1.7350    1.3290 c         1 MOL      0.513928
     32 O6         -8.3120   -0.6510    1.8400 o         1 MOL     -0.534001
     33 C12        -8.7390   -1.9640   -1.2440 c3        1 MOL     -0.109190
     34 C13        -7.7710   -0.8880   -1.7210 c         1 MOL      0.635523
     35 O7         -7.7580   -0.5850   -2.9630 o         1 MOL     -0.641491
     36 O8         -7.0480   -0.3640   -0.8200 o         1 MOL     -0.641491
     37 H13       -10.1040    0.2760    0.6200 hn        1 MOL      0.245601
     38 H14       -10.2530   -2.4780    0.1400 h1        1 MOL      0.000897
     39 H15        -9.4120   -2.0660   -2.0910 hc        1 MOL      0.025467
     40 H16        -8.1590   -2.8930   -1.1870 hc        1 MOL      0.025467
     41 N4         -8.1420   -2.9300    1.6370 n         1 MOL     -0.432469
     42 C14        -7.0670   -3.1530    2.6370 c3        1 MOL     -0.115589
     43 C15        -5.6770   -2.5030    2.3120 c         1 MOL      0.882474
     44 O9         -5.5070   -1.6390    1.4770 o         1 MOL     -0.702407
     45 H17        -8.3390   -3.6820    0.9890 hn        1 MOL      0.307294
     46 H18        -6.8380   -4.1950    2.8640 h1        1 MOL      0.083578
     47 H19        -7.4900   -2.8380    3.5820 h1        1 MOL      0.083578
     48 N5         -4.6790   -2.9430    3.1040 n         1 MOL     -0.852782
     49 C16        -3.3490   -2.4730    3.0000 c3        1 MOL      0.122650
     50 C17        -2.5670   -3.1110    1.7800 c         1 MOL      0.826919
     51 O10        -2.8370   -4.2890    1.4740 o         1 MOL     -0.550630
     52 C18        -2.6300   -2.7140    4.3590 c3        1 MOL     -0.397647
     53 C19        -3.1140   -2.0800    5.6490 c         1 MOL      0.839286
     54 N6         -2.7200   -2.5060    6.7590 n         1 MOL     -0.797935
     55 O11        -3.9380   -1.1960    5.5250 o         1 MOL     -0.638161
     56 H20        -4.8700   -3.5630    3.8810 hn        1 MOL      0.395863
     57 H21        -3.3540   -1.4070    2.7780 h1        1 MOL      0.127811
     58 H22        -1.6240   -2.2980    4.3560 hc        1 MOL      0.098724
     59 H23        -2.5890   -3.8000    4.5000 hc        1 MOL      0.098724
     60 H24        -2.1650   -3.3560    6.7950 hn        1 MOL      0.374316
     61 H25        -3.0860   -2.0730    7.5880 hn        1 MOL      0.374316
     62 N7         -1.6170   -2.3740    1.1200 n         1 MOL     -0.794982
     63 C20        -0.6340   -2.8210    0.1250 c3        1 MOL      0.169042
     64 C21        -1.0950   -2.5400   -1.3740 c         1 MOL      0.653919
     65 O12        -1.7500   -1.5850   -1.6290 o         1 MOL     -0.580854
     66 H26        -1.4630   -1.4570    1.4930 hn        1 MOL      0.339042
     67 H27        -0.4650   -3.8900    0.2080 h1        1 MOL      0.061323
     68 H28         0.2980   -2.2540    0.2310 h1        1 MOL      0.061323
     69 N8         -0.7190   -3.3710   -2.3600 n         1 MOL     -0.520374
     70 C22         0.2540   -4.5100   -2.1850 c3        1 MOL     -0.058998
     71 C23         1.7480   -4.0340   -2.1360 c         1 MOL      0.291829
     72 O13         2.7140   -4.8190   -2.1420 o         1 MOL     -0.521033
     73 C24         0.1830   -5.5260   -3.3860 c3        1 MOL      0.308135
     74 C25        -1.1190   -6.3240   -3.4130 c3        1 MOL     -0.367640
     75 O14         0.1920   -4.8860   -4.6460 oh        1 MOL     -0.567941
     76 H29        -1.2010   -3.1990   -3.2330 hn        1 MOL      0.346603
     77 H30         0.0530   -5.1150   -1.2920 h1        1 MOL      0.148710
     78 H31         0.9970   -6.2390   -3.2650 h1        1 MOL      0.030490
     79 H32         0.7090   -5.4280   -5.2440 ho        1 MOL      0.403546
     80 H33        -1.8720   -5.6500   -3.8240 hc        1 MOL      0.082681
     81 H34        -1.0870   -7.2100   -4.0360 hc        1 MOL      0.082681
     82 H35        -1.4350   -6.5530   -2.3960 hc        1 MOL      0.082681
     83 N9          1.9530   -2.7340   -2.1950 n         1 MOL     -0.159969
     84 C26         3.1600   -1.9780   -2.4720 c3        1 MOL     -0.071023
     85 C27         3.2020   -0.7350   -1.5200 c         1 MOL      0.414448
     86 O15         2.0980   -0.1890   -1.3950 o         1 MOL     -0.605127
     87 C28         3.1150   -1.4640   -3.8940 c3        1 MOL      0.216212
     88 C29         3.1460   -2.6420   -4.9080 c3        1 MOL      0.119509
     89 C30         4.2450   -0.4650   -4.2100 c3        1 MOL     -0.153432
     90 C31         2.7150   -2.1490   -6.3100 c3        1 MOL     -0.261613
     91 H36         1.1550   -2.1370   -2.3600 hn        1 MOL      0.173619
     92 H37         3.9530   -2.7090   -2.2770 h1        1 MOL      0.077143
     93 H38         2.2560   -0.8220   -4.0300 hc        1 MOL     -0.005875
     94 H39         2.3470   -3.3430   -4.6720 hc        1 MOL     -0.025304
     95 H40         4.1560   -3.0530   -4.9400 hc        1 MOL     -0.025304
     96 H41         4.4220   -0.3350   -5.2780 hc        1 MOL      0.042994
     97 H42         3.8790    0.5410   -3.9730 hc        1 MOL      0.042994
     98 H43         5.2190   -0.5930   -3.7430 hc        1 MOL      0.042994
     99 H44         1.9190   -1.4200   -6.2130 hc        1 MOL      0.045702
    100 H45         3.4870   -1.6880   -6.9270 hc        1 MOL      0.045702
    101 H46         2.3370   -3.0910   -6.7120 hc        1 MOL      0.045702
    102 N10         4.1040   -0.4350   -0.6970 n         1 MOL     -0.259386
    103 C32         5.3620   -1.2200   -0.3990 c3        1 MOL      0.223839
    104 C33         6.4510   -0.3800    0.2990 c         1 MOL      0.357767
    105 O16         6.0890    0.7580    0.7070 o         1 MOL     -0.478135
    106 C34         4.9640   -2.4600    0.3690 c3        1 MOL     -0.069311
    107 C35         4.0130   -2.2620    1.5080 c         1 MOL      0.766680
    108 O17         4.0870   -1.2900    2.2820 o         1 MOL     -0.743869
    109 O18         3.0610   -3.0340    1.6010 o         1 MOL     -0.743869
    110 H47         3.9480    0.3720   -0.0990 hn        1 MOL      0.281166
    111 H48         5.8770   -1.5700   -1.2940 h1        1 MOL      0.032538
    112 H49         5.8800   -2.7990    0.8620 hc        1 MOL     -0.049581
    113 H50         4.5590   -3.1150   -0.4100 hc        1 MOL     -0.049581
    114 N11         7.7460   -0.8690    0.3030 n         1 MOL     -0.532287
    115 C36         8.8230   -0.2260    1.1000 c3        1 MOL      0.548217
    116 C37        10.1560   -0.1580    0.3630 c         1 MOL      0.274749
    117 O19        10.4970   -1.1630   -0.2460 o         1 MOL     -0.495392
    118 C38         9.0080   -0.9350    2.3980 c3        1 MOL     -0.133939
    119 C39        10.2060   -0.5410    3.3230 ca        1 MOL      0.096781
    120 C40         9.9270    0.3050    4.4400 ca        1 MOL     -0.193573
    121 C41        11.5410   -0.9980    3.1350 ca        1 MOL     -0.193573
    122 C42        11.0330    0.7300    5.2700 ca        1 MOL     -0.078871
    123 C43        12.5880   -0.4490    3.8510 ca        1 MOL     -0.078871
    124 C44        12.3840    0.4230    4.9510 ca        1 MOL     -0.166182
    125 H51         7.8730   -1.7040   -0.2550 hn        1 MOL      0.296293
    126 H52         8.4600    0.7480    1.4470 h1        1 MOL     -0.025845
    127 H53         9.1470   -2.0020    2.2070 hc        1 MOL      0.036744
    128 H54         8.1440   -0.9190    3.0570 hc        1 MOL      0.036744
    129 H55         8.9070    0.5990    4.6330 ha        1 MOL      0.139662
    130 H56        11.7880   -1.7710    2.4250 ha        1 MOL      0.139662
    131 H57        10.8440    1.2640    6.1900 ha        1 MOL      0.093880
    132 H58        13.5720   -0.8020    3.5890 ha        1 MOL      0.093880
    133 H59        13.2070    0.6070    5.6210 ha        1 MOL      0.111670
    134 N12        10.9370    0.9960    0.4810 n         1 MOL     -0.055072
    135 C45        10.6390    2.2970    1.1380 c3        1 MOL      0.100075
    136 C46         9.5010    3.0380    0.4770 c         1 MOL      0.524181
    137 O20         8.7290    3.6980    1.2230 o         1 MOL     -0.574316
    138 C47        11.9840    3.0540    1.1050 c3        1 MOL     -0.100458
    139 C48        12.9800    1.8970    1.1600 c3        1 MOL      0.103664
    140 C49        12.4070    0.8590    0.2410 c3        1 MOL     -0.150788
    141 H60        10.3380    2.0430    2.1570 h1        1 MOL      0.017386
    142 H61        12.1360    3.5630    0.1460 hc        1 MOL      0.037574
    143 H62        12.1140    3.7600    1.9250 hc        1 MOL      0.037574
    144 H63        14.0110    2.1760    0.9320 hc        1 MOL     -0.015956
    145 H64        13.0690    1.4520    2.1570 hc        1 MOL     -0.015956
    146 H65        12.7260    1.1410   -0.7540 h1        1 MOL      0.070187
    147 H66        12.7750   -0.1440    0.4670 h1        1 MOL      0.070187
    148 N13         9.2160    2.8170   -0.8390 n         1 MOL     -0.646800
    149 C50         7.9860    3.3930   -1.3430 c3        1 MOL      0.432818
    150 C51         7.9820    4.9960   -1.3580 c         1 MOL      0.439725
    151 O21         8.6520    5.6160   -2.1860 o         1 MOL     -0.596167
    152 C52         7.7420    3.0190   -2.7940 c3        1 MOL      0.131727
    153 C53         7.1560    1.6350   -3.0020 c3        1 MOL     -0.057190
    154 C54         7.3810    1.1440   -4.4340 c         1 MOL      0.776466
    155 O22         7.2650    1.8850   -5.4040 o         1 MOL     -0.751616
    156 O23         7.9350    0.0230   -4.5790 o         1 MOL     -0.751616
    157 H67         9.8050    2.1660   -1.3430 hn        1 MOL      0.335564
    158 H68         7.1700    2.9870   -0.7480 h1        1 MOL     -0.009876
    159 H69         8.6680    3.0660   -3.3620 hc        1 MOL     -0.042451
    160 H70         7.0600    3.7670   -3.1910 hc        1 MOL     -0.042451
    161 H71         6.1120    1.6110   -2.6850 hc        1 MOL     -0.108921
    162 H72         7.7560    1.0030   -2.3440 hc        1 MOL     -0.108921
    163 N14         7.3580    5.8720   -0.5190 n         1 MOL     -0.336188
    164 C55         6.3970    5.5070    0.5510 c3        1 MOL     -0.235372
    165 H73         6.5580    4.4700    0.8450 h1        1 MOL      0.098220
    166 H74         6.5490    6.1560    1.4130 h1        1 MOL      0.098220
    167 H75         5.3790    5.6250    0.1810 h1        1 MOL      0.098220
    168 H76         7.7210    6.8130   -0.5980 hn        1 MOL      0.269094
    169 Ca1        -6.1160    1.0270    1.0780 Ca        1 MOL      1.765006
    170 O24        -4.6200    1.2310   -1.0270 oh        1 MOL     -0.834045
    171 H77        -3.6710    1.2940   -0.9460 ho        1 MOL      0.413884
    172 H78        -4.7610    0.8420   -1.8860 ho        1 MOL      0.413884
    173 O25        -3.5900    0.9510    1.5560 oh        1 MOL     -0.834045
    174 H79        -3.1700    1.0680    0.7040 ho        1 MOL      0.413884
    175 H80        -2.8810    0.6440    2.1260 ho        1 MOL      0.413884
    176 O26        -5.8180    0.5560    3.6320 oh        1 MOL     -0.834045
    177 H81        -6.6800    0.4720    4.0360 ho        1 MOL      0.413884
    178 H82        -5.2260    0.1330    4.2560 ho        1 MOL      0.413884
    179 O27        -5.1620    3.4030    0.8920 oh        1 MOL     -0.834045
    180 H83        -4.4090    3.5700    0.3390 ho        1 MOL      0.413884
    181 H84        -5.1220    4.0910    1.5640 ho        1 MOL      0.413884
@<TRIPOS>BOND
     1    1    2 1   
     2    1    4 1   
     3    1    5 1   
     4    1    6 1   
     5    2    3 2   
     6    2    7 1   
     7    7    8 1   
     8    7   15 1   
     9    8    9 1   
    10    8   11 1   
    11    8   16 1   
    12    9   10 2   
    13    9   19 1   
    14   11   12 1   
    15   11   17 1   
    16   11   18 1   
    17   12   13 1   
    18   12   14 1   
    19   19   20 1   
    20   19   24 1   
    21   20   21 1   
    22   20   23 1   
    23   20   25 1   
    24   21   22 2   
    25   21   29 1   
    26   23   26 1   
    27   23   27 1   
    28   23   28 1   
    29   29   30 1   
    30   29   37 1   
    31   30   31 1   
    32   30   33 1   
    33   30   38 1   
    34   31   32 2   
    35   31   41 1   
    36   33   34 1   
    37   33   39 1   
    38   33   40 1   
    39   34   35 1   
    40   34   36 1   
    41   41   42 1   
    42   41   45 1   
    43   42   43 1   
    44   42   46 1   
    45   42   47 1   
    46   43   44 2   
    47   43   48 1   
    48   48   49 1   
    49   48   56 1   
    50   49   50 1   
    51   49   52 1   
    52   49   57 1   
    53   50   51 2   
    54   50   62 1   
    55   52   53 1   
    56   52   58 1   
    57   52   59 1   
    58   53   54 1   
    59   53   55 2   
    60   54   60 1   
    61   54   61 1   
    62   62   63 1   
    63   62   66 1   
    64   63   64 1   
    65   63   67 1   
    66   63   68 1   
    67   64   65 2   
    68   64   69 1   
    69   69   70 1   
    70   69   76 1   
    71   70   71 1   
    72   70   73 1   
    73   70   77 1   
    74   71   72 2   
    75   71   83 1   
    76   73   74 1   
    77   73   75 1   
    78   73   78 1   
    79   74   80 1   
    80   74   81 1   
    81   74   82 1   
    82   75   79 1   
    83   83   84 1   
    84   83   91 1   
    85   84   85 1   
    86   84   87 1   
    87   84   92 1   
    88   85   86 2   
    89   85  102 1   
    90   87   88 1   
    91   87   89 1   
    92   87   93 1   
    93   88   90 1   
    94   88   94 1   
    95   88   95 1   
    96   89   96 1   
    97   89   97 1   
    98   89   98 1   
    99   90   99 1   
   100   90  100 1   
   101   90  101 1   
   102  102  103 1   
   103  102  110 1   
   104  103  104 1   
   105  103  106 1   
   106  103  111 1   
   107  104  105 2   
   108  104  114 1   
   109  106  107 1   
   110  106  112 1   
   111  106  113 1   
   112  107  108 1   
   113  107  109 1   
   114  114  115 1   
   115  114  125 1   
   116  115  116 1   
   117  115  118 1   
   118  115  126 1   
   119  116  117 2   
   120  116  134 1   
   121  118  119 1   
   122  118  127 1   
   123  118  128 1   
   124  119  120 ar  
   125  119  121 ar  
   126  120  122 ar  
   127  120  129 1   
   128  121  123 ar  
   129  121  130 1   
   130  122  124 ar  
   131  122  131 1   
   132  123  124 ar  
   133  123  132 1   
   134  124  133 1   
   135  134  135 1   
   136  134  140 1   
   137  135  136 1   
   138  135  138 1   
   139  135  141 1   
   140  136  137 2   
   141  136  148 1   
   142  138  139 1   
   143  138  142 1   
   144  138  143 1   
   145  139  140 1   
   146  139  144 1   
   147  139  145 1   
   148  140  146 1   
   149  140  147 1   
   150  148  149 1   
   151  148  157 1   
   152  149  150 1   
   153  149  152 1   
   154  149  158 1   
   155  150  151 2   
   156  150  163 1   
   157  152  153 1   
   158  152  159 1   
   159  152  160 1   
   160  153  154 1   
   161  153  161 1   
   162  153  162 1   
   163  154  155 1   
   164  154  156 1   
   165  163  164 1   
   166  163  168 1   
   167  164  165 1   
   168  164  166 1   
   169  164  167 1   
   170  170  171 1   
   171  170  172 1   
   172  173  174 1   
   173  173  175 1   
   174  176  177 1   
   175  176  178 1   
   176  179  180 1   
   177  179  181 1   
@<TRIPOS>SUBSTRUCTURE
     1 MOL         1 TEMP              0 ****  ****    0 ROOT
