@<TRIPOS>MOLECULE
MOL
  198   191     1     0     0
SMALL
resp


@<TRIPOS>ATOM
      1 C1          1.9510    2.3380    0.3800 c3        1 MOL     -0.199571
      2 C2          0.8240    2.9410   -0.3720 c         1 MOL      0.646118
      3 O1          0.0480    2.1330   -0.9190 o         1 MOL     -0.528465
      4 H1          1.5980    1.9980    1.3530 hc        1 MOL      0.004674
      5 H2          2.3490    1.4900   -0.1790 hc        1 MOL      0.004674
      6 H3          2.7360    3.0830    0.5190 hc        1 MOL      0.004674
      7 N1          0.7950    4.2540   -0.3600 n         1 MOL     -0.495618
      8 C3         -0.2650    5.1270   -0.8890 c3        1 MOL      0.050489
      9 C4         -1.5460    5.1000    0.0380 c         1 MOL      0.638678
     10 O2         -1.9000    4.0660    0.5440 o         1 MOL     -0.543216
     11 C5         -0.5370    5.0340   -2.3900 c3        1 MOL     -0.195028
     12 C6         -1.4480    6.0960   -2.8930 c         1 MOL      0.674840
     13 O3         -1.8710    5.9990   -4.0960 o         1 MOL     -0.636104
     14 O4         -1.6770    7.0840   -2.2270 o         1 MOL     -0.636104
     15 H4          1.5870    4.7000    0.0860 hn        1 MOL      0.302037
     16 H5          0.0690    6.1500   -0.7160 h1        1 MOL      0.020654
     17 H6         -1.0090    4.0660   -2.5690 hc        1 MOL      0.060145
     18 H7          0.3450    5.0190   -3.0250 hc        1 MOL      0.060145
     19 N2         -2.1260    6.2080    0.4260 n         1 MOL     -0.577211
     20 C7         -3.0940    6.3650    1.5800 c3        1 MOL      0.063173
     21 C8         -4.2090    7.3520    1.2500 c         1 MOL      0.644027
     22 O5         -3.9630    8.4870    0.9960 o         1 MOL     -0.595235
     23 C9         -2.4250    6.8490    2.9760 c3        1 MOL      0.360664
     24 C10        -1.1900    5.9580    3.4410 c3        1 MOL     -0.084560
     25 C11        -3.4660    6.9000    4.1080 c3        1 MOL     -0.404978
     26 C12        -1.5280    4.5140    3.8130 c3        1 MOL      0.052159
     27 H8         -1.9090    7.0800   -0.0350 hn        1 MOL      0.292105
     28 H9         -3.6120    5.4140    1.6670 h1        1 MOL      0.048934
     29 H10        -2.0230    7.8410    2.7440 hc        1 MOL     -0.075515
     30 H11        -0.7730    6.4790    4.3030 hc        1 MOL     -0.024069
     31 H12        -0.4730    5.9070    2.6310 hc        1 MOL     -0.024069
     32 H13        -2.9630    7.1550    5.0370 hc        1 MOL      0.079701
     33 H14        -4.0630    7.7940    3.9240 hc        1 MOL      0.079701
     34 H15        -4.0860    6.0030    4.0320 hc        1 MOL      0.079701
     35 H16        -0.7390    3.7700    3.7170 hc        1 MOL     -0.010018
     36 H17        -1.7750    4.5050    4.8770 hc        1 MOL     -0.010018
     37 H18        -2.4250    4.1100    3.3480 hc        1 MOL     -0.010018
     38 N3         -5.4840    6.9600    1.3430 n         1 MOL     -0.634568
     39 C13        -6.0970    5.6720    1.7680 c3        1 MOL      0.262640
     40 C14        -5.8040    4.6430    0.7290 c         1 MOL      0.566575
     41 O6         -6.1290    3.5290    1.0770 o         1 MOL     -0.602255
     42 C15        -7.5580    5.8570    1.9850 c3        1 MOL     -0.300644
     43 C16        -8.4720    6.5180    0.9510 c         1 MOL      0.809249
     44 O7         -9.6700    6.8030    1.2720 o         1 MOL     -0.670798
     45 O8         -8.0160    6.8830   -0.1190 o         1 MOL     -0.670798
     46 H19        -6.1500    7.6320    1.0100 hn        1 MOL      0.324450
     47 H20        -5.6330    5.3680    2.7060 h1        1 MOL      0.008342
     48 H21        -7.7430    6.5080    2.8440 hc        1 MOL      0.046926
     49 H22        -7.9740    4.9000    2.3020 hc        1 MOL      0.046926
     50 N4         -5.2810    4.9470   -0.4520 n         1 MOL     -0.306490
     51 C17        -4.7990    4.0250   -1.4250 c3        1 MOL     -0.172966
     52 C18        -5.7950    2.9820   -1.9230 c         1 MOL      0.531091
     53 O9         -6.9850    3.2460   -2.1960 o         1 MOL     -0.513259
     54 H23        -5.0190    5.9190   -0.6180 hn        1 MOL      0.290054
     55 H24        -3.9350    3.5150   -1.0010 h1        1 MOL      0.122938
     56 H25        -4.5180    4.6190   -2.2970 h1        1 MOL      0.122938
     57 N5         -5.2690    1.7360   -2.1480 n         1 MOL     -0.477291
     58 C19        -6.0940    0.7560   -2.9070 c3        1 MOL      0.078688
     59 C20        -7.0520   -0.1760   -2.1420 c         1 MOL      0.385588
     60 O10        -7.9090   -0.8200   -2.7710 o         1 MOL     -0.543874
     61 C21        -5.1330   -0.1420   -3.6980 c3        1 MOL     -0.281530
     62 C22        -4.1670   -0.9650   -2.7630 c         1 MOL      0.691842
     63 O11        -3.0190   -0.5950   -2.5900 o         1 MOL     -0.625480
     64 O12        -4.6830   -1.8660   -2.1250 o         1 MOL     -0.625480
     65 H26        -4.3050    1.5180   -1.9510 hn        1 MOL      0.313842
     66 H27        -6.7170    1.2540   -3.6600 h1        1 MOL      0.101967
     67 H28        -4.4620    0.5260   -4.2380 hc        1 MOL      0.059649
     68 H29        -5.7050   -0.7750   -4.3800 hc        1 MOL      0.059649
     69 N6         -6.9040   -0.3630   -0.7930 n         1 MOL     -0.086298
     70 C23        -7.8080   -1.1140    0.1120 c3        1 MOL     -0.329171
     71 C24        -7.7760   -2.6160    0.0870 c         1 MOL      0.629862
     72 O13        -8.5130   -3.3260    0.8150 o         1 MOL     -0.637494
     73 H30        -6.0970    0.0980   -0.3970 hn        1 MOL      0.236957
     74 H31        -8.8210   -0.7340   -0.0360 h1        1 MOL      0.129161
     75 H32        -7.4030   -0.8480    1.0900 h1        1 MOL      0.129161
     76 N7         -6.9620   -3.1880   -0.8440 n         1 MOL      0.015847
     77 C25        -6.7650   -4.6240   -1.1020 c3        1 MOL     -0.079376
     78 C26        -6.1740   -5.4810    0.0670 c         1 MOL      0.362198
     79 O14        -6.2840   -6.7140    0.0760 o         1 MOL     -0.498167
     80 C27        -8.0160   -5.2720   -1.6910 c3        1 MOL      0.144141
     81 C28        -8.5660   -4.4700   -2.9150 c3        1 MOL     -0.437439
     82 C29        -7.5220   -4.4100   -4.0320 c         1 MOL      0.725676
     83 N8         -6.8230   -3.3410   -4.3560 n         1 MOL     -0.824650
     84 O15        -7.2740   -5.3760   -4.6660 o         1 MOL     -0.613314
     85 H33        -6.3920   -2.5810   -1.4180 hn        1 MOL     -0.091830
     86 H34        -6.0420   -4.7030   -1.9170 h1        1 MOL      0.160787
     87 H35        -8.7410   -5.4420   -0.8920 hc        1 MOL      0.012883
     88 H36        -7.7660   -6.2690   -2.0410 hc        1 MOL      0.012883
     89 H37        -8.8830   -3.4710   -2.6310 hc        1 MOL      0.114160
     90 H38        -9.5110   -4.8650   -3.2890 hc        1 MOL      0.114160
     91 H39        -7.0050   -2.4730   -3.8790 hn        1 MOL      0.381990
     92 H40        -5.9990   -3.4760   -4.9340 hn        1 MOL      0.381990
     93 N9         -5.7610   -4.8490    1.2010 n         1 MOL     -0.286853
     94 C30        -5.3400   -5.5040    2.4490 c3        1 MOL     -0.022520
     95 C31        -3.8710   -5.1780    2.7690 c         1 MOL      0.590477
     96 O16        -3.3820   -5.7410    3.7400 o         1 MOL     -0.569677
     97 C32        -6.2580   -5.1440    3.5640 c3        1 MOL      0.380607
     98 C33        -6.0830   -3.6530    3.9240 c3        1 MOL     -0.374706
     99 C34        -7.7210   -5.4620    3.2850 c3        1 MOL     -0.374706
    100 H41        -5.6300   -3.8460    1.2300 hn        1 MOL      0.245268
    101 H42        -5.4310   -6.5860    2.3470 h1        1 MOL      0.070955
    102 H43        -5.8730   -5.7140    4.4000 hc        1 MOL     -0.073472
    103 H44        -6.0020   -3.0460    3.0180 hc        1 MOL      0.081645
    104 H45        -6.8610   -3.2660    4.5900 hc        1 MOL      0.081645
    105 H46        -5.1270   -3.5330    4.4220 hc        1 MOL      0.081645
    106 H47        -7.8700   -6.4840    2.9450 hc        1 MOL      0.081645
    107 H48        -8.3440   -5.3590    4.1690 hc        1 MOL      0.081645
    108 H49        -8.1390   -4.6350    2.7150 hc        1 MOL      0.081645
    109 N10        -3.1170   -4.3170    1.9820 n         1 MOL     -0.627775
    110 C35        -1.7560   -3.8080    2.2630 c3        1 MOL      0.515804
    111 C36        -0.9820   -3.5160    0.9200 c         1 MOL      0.365503
    112 O17        -1.5380   -3.5890   -0.1390 o         1 MOL     -0.466518
    113 C37        -2.0350   -2.5100    3.0910 c3        1 MOL     -0.246396
    114 C38        -0.9140   -2.1210    4.0300 c         1 MOL      0.600355
    115 N11        -1.1430   -1.5300    5.1660 n         1 MOL     -0.749767
    116 O18         0.2100   -2.4910    3.8590 o         1 MOL     -0.512048
    117 H50        -3.6350   -3.9100    1.2130 hn        1 MOL      0.250044
    118 H51        -1.2090   -4.5210    2.8650 h1        1 MOL     -0.021812
    119 H52        -2.8990   -2.7090    3.7290 hc        1 MOL      0.058691
    120 H53        -2.2380   -1.6800    2.4220 hc        1 MOL      0.058691
    121 H54        -2.1050   -1.2840    5.3470 hn        1 MOL      0.348940
    122 H55        -0.3820   -1.4280    5.8210 hn        1 MOL      0.348940
    123 N12         0.2920   -3.2040    1.1280 n         1 MOL     -0.474474
    124 C39         1.2450   -2.9750    0.0090 c3        1 MOL      0.340412
    125 C40         2.6750   -3.4350    0.3200 c         1 MOL      0.373627
    126 O19         3.1180   -3.5030    1.4780 o         1 MOL     -0.548701
    127 C41         1.2260   -1.4750   -0.3340 c3        1 MOL     -0.533524
    128 C42         2.3910   -1.0470   -1.2400 ca        1 MOL     -0.023172
    129 C43         3.5480   -0.6050   -0.5700 ca        1 MOL      0.010441
    130 C44         2.2080   -1.0200   -2.6570 ca        1 MOL      0.010441
    131 C45         4.6100   -0.1760   -1.3950 ca        1 MOL     -0.380100
    132 C46         3.3550   -0.6820   -3.4400 ca        1 MOL     -0.380100
    133 C47         4.5630   -0.2900   -2.8030 ca        1 MOL      0.448325
    134 O20         5.5780    0.3110   -3.5600 oh        1 MOL     -0.555741
    135 H56         0.6470   -3.0880    2.0660 hn        1 MOL      0.234000
    136 H57         0.8940   -3.5330   -0.8640 h1        1 MOL      0.018754
    137 H58         1.2650   -0.9210    0.6070 hc        1 MOL      0.241703
    138 H59         0.2810   -1.1660   -0.7780 hc        1 MOL      0.241703
    139 H60         3.6190   -0.7040    0.5030 ha        1 MOL      0.116479
    140 H61         1.2470   -1.2510   -3.1190 ha        1 MOL      0.116479
    141 H62         5.5760    0.0890   -0.9880 ha        1 MOL      0.179815
    142 H63         3.2300   -0.6550   -4.5140 ha        1 MOL      0.179815
    143 H64         6.3060    0.7170   -3.0900 ho        1 MOL      0.368973
    144 N13         3.4110   -3.7580   -0.7460 n         1 MOL     -0.324884
    145 C48         4.8330   -4.1810   -0.6800 c3        1 MOL      0.039749
    146 C49         5.8770   -3.4120   -1.5360 c         1 MOL      0.431075
    147 O21         6.0180   -3.6470   -2.7630 o         1 MOL     -0.559104
    148 C50         4.8650   -5.6390   -1.0830 c3        1 MOL      0.211578
    149 C51         4.3510   -6.6000    0.0080 c3        1 MOL     -0.073911
    150 C52         4.8320   -8.0230   -0.3350 c         1 MOL      0.610448
    151 O22         5.4150   -8.7060    0.5900 o         1 MOL     -0.623332
    152 O23         4.8080   -8.3960   -1.5360 o         1 MOL     -0.623332
    153 H65         2.9960   -3.8910   -1.6630 hn        1 MOL      0.272473
    154 H66         5.1740   -4.1950    0.3560 h1        1 MOL      0.066960
    155 H67         5.8500   -5.9770   -1.3910 hc        1 MOL     -0.035970
    156 H68         4.1770   -5.6430   -1.9330 hc        1 MOL     -0.035970
    157 H69         3.2650   -6.5080    0.0510 hc        1 MOL     -0.006042
    158 H70         4.7560   -6.3980    0.9960 hc        1 MOL     -0.006042
    159 N14         6.6550   -2.5820   -0.9830 n         1 MOL     -0.337773
    160 C53         6.7550   -2.1680    0.3630 c3        1 MOL      0.058799
    161 C54         7.2090   -3.3320    1.3510 c         1 MOL      0.520833
    162 O24         7.8650   -4.2960    0.9480 o         1 MOL     -0.525683
    163 C55         7.7360   -0.9570    0.5040 c3        1 MOL     -0.105513
    164 C56         9.0870   -1.0110   -0.2310 c3        1 MOL     -0.305839
    165 C57         9.9260    0.1130    0.2630 c         1 MOL      0.545608
    166 O25        10.3010    0.2330    1.4720 o         1 MOL     -0.599075
    167 O26        10.3550    0.9200   -0.5670 o         1 MOL     -0.599075
    168 H71         7.3650   -2.2170   -1.5950 hn        1 MOL      0.225299
    169 H72         5.8050   -1.7590    0.7310 h1        1 MOL      0.084997
    170 H73         7.9560   -0.8290    1.5650 hc        1 MOL     -0.054436
    171 H74         7.2450   -0.0410    0.1640 hc        1 MOL     -0.054436
    172 H75         8.8840   -0.8630   -1.2980 hc        1 MOL      0.155976
    173 H76         9.6090   -1.8890    0.1410 hc        1 MOL      0.155976
    174 N15         6.7140   -3.2450    2.6060 n         1 MOL     -0.213445
    175 C58         6.9070   -4.3120    3.6270 c3        1 MOL     -0.266744
    176 H77         6.1430   -4.2190    4.3980 h1        1 MOL      0.112187
    177 H78         6.8260   -5.2900    3.1510 h1        1 MOL      0.112187
    178 H79         7.8940   -4.2090    4.0800 h1        1 MOL      0.112187
    179 H80         6.1260   -2.4670    2.8840 hn        1 MOL      0.231802
    180 Ca1        11.3190    3.1670   -0.1410 Ca        1 MOL      1.635026
    181 O27        13.2570    1.9930    1.7760 oh        1 MOL     -0.848770
    182 H81        13.1880    1.4040    2.5270 ho        1 MOL      0.367290
    183 H82        14.1640    2.3100    1.8010 ho        1 MOL      0.367290
    184 O28        13.0940    1.6180   -1.0870 oh        1 MOL     -0.848770
    185 H83        13.7650    1.2140   -0.5440 ho        1 MOL      0.367290
    186 H84        12.8770    0.9420   -1.7280 ho        1 MOL      0.367290
    187 O29        10.9730    2.9920   -2.9170 oh        1 MOL     -0.848770
    188 H85        10.9440    2.2860   -3.5650 ho        1 MOL      0.367290
    189 H86        11.2320    3.7700   -3.4070 ho        1 MOL      0.367290
    190 O30        13.6220    4.5710   -0.7050 oh        1 MOL     -0.848770
    191 H87        14.2460    4.0080   -1.1510 ho        1 MOL      0.367290
    192 H88        14.1640    5.1540   -0.1660 ho        1 MOL      0.367290
    193 O31        10.2470    5.5020   -0.5820 oh        1 MOL     -0.848770
    194 H89         9.6610    5.8700    0.0860 ho        1 MOL      0.367290
    195 H90        10.2280    6.1440   -1.2980 ho        1 MOL      0.367290
    196 O32        12.2910    4.8910    1.7520 oh        1 MOL     -0.848770
    197 H91        12.4260    4.7350    2.6910 ho        1 MOL      0.367290
    198 H92        12.9890    5.4970    1.5050 ho        1 MOL      0.367290
@<TRIPOS>BOND
     1    1    2 1   
     2    1    4 1   
     3    1    5 1   
     4    1    6 1   
     5    2    3 2   
     6    2    7 1   
     7    7    8 1   
     8    7   15 1   
     9    8    9 1   
    10    8   11 1   
    11    8   16 1   
    12    9   10 2   
    13    9   19 1   
    14   11   12 1   
    15   11   17 1   
    16   11   18 1   
    17   12   13 1   
    18   12   14 1   
    19   19   20 1   
    20   19   27 1   
    21   20   21 1   
    22   20   23 1   
    23   20   28 1   
    24   21   22 2   
    25   21   38 1   
    26   23   24 1   
    27   23   25 1   
    28   23   29 1   
    29   24   26 1   
    30   24   30 1   
    31   24   31 1   
    32   25   32 1   
    33   25   33 1   
    34   25   34 1   
    35   26   35 1   
    36   26   36 1   
    37   26   37 1   
    38   38   39 1   
    39   38   46 1   
    40   39   40 1   
    41   39   42 1   
    42   39   47 1   
    43   40   41 2   
    44   40   50 1   
    45   42   43 1   
    46   42   48 1   
    47   42   49 1   
    48   43   44 1   
    49   43   45 1   
    50   50   51 1   
    51   50   54 1   
    52   51   52 1   
    53   51   55 1   
    54   51   56 1   
    55   52   53 2   
    56   52   57 1   
    57   57   58 1   
    58   57   65 1   
    59   58   59 1   
    60   58   61 1   
    61   58   66 1   
    62   59   60 2   
    63   59   69 1   
    64   61   62 1   
    65   61   67 1   
    66   61   68 1   
    67   62   63 1   
    68   62   64 1   
    69   69   70 1   
    70   69   73 1   
    71   70   71 1   
    72   70   74 1   
    73   70   75 1   
    74   71   72 2   
    75   71   76 1   
    76   76   77 1   
    77   76   85 1   
    78   77   78 1   
    79   77   80 1   
    80   77   86 1   
    81   78   79 2   
    82   78   93 1   
    83   80   81 1   
    84   80   87 1   
    85   80   88 1   
    86   81   82 1   
    87   81   89 1   
    88   81   90 1   
    89   82   83 1   
    90   82   84 2   
    91   83   91 1   
    92   83   92 1   
    93   93   94 1   
    94   93  100 1   
    95   94   95 1   
    96   94   97 1   
    97   94  101 1   
    98   95   96 2   
    99   95  109 1   
   100   97   98 1   
   101   97   99 1   
   102   97  102 1   
   103   98  103 1   
   104   98  104 1   
   105   98  105 1   
   106   99  106 1   
   107   99  107 1   
   108   99  108 1   
   109  109  110 1   
   110  109  117 1   
   111  110  111 1   
   112  110  113 1   
   113  110  118 1   
   114  111  112 2   
   115  111  123 1   
   116  113  114 1   
   117  113  119 1   
   118  113  120 1   
   119  114  115 1   
   120  114  116 2   
   121  115  121 1   
   122  115  122 1   
   123  123  124 1   
   124  123  135 1   
   125  124  125 1   
   126  124  127 1   
   127  124  136 1   
   128  125  126 2   
   129  125  144 1   
   130  127  128 1   
   131  127  137 1   
   132  127  138 1   
   133  128  129 ar  
   134  128  130 ar  
   135  129  131 ar  
   136  129  139 1   
   137  130  132 ar  
   138  130  140 1   
   139  131  133 ar  
   140  131  141 1   
   141  132  133 ar  
   142  132  142 1   
   143  133  134 1   
   144  134  143 1   
   145  144  145 1   
   146  144  153 1   
   147  145  146 1   
   148  145  148 1   
   149  145  154 1   
   150  146  147 2   
   151  146  159 1   
   152  148  149 1   
   153  148  155 1   
   154  148  156 1   
   155  149  150 1   
   156  149  157 1   
   157  149  158 1   
   158  150  151 1   
   159  150  152 1   
   160  159  160 1   
   161  159  168 1   
   162  160  161 1   
   163  160  163 1   
   164  160  169 1   
   165  161  162 2   
   166  161  174 1   
   167  163  164 1   
   168  163  170 1   
   169  163  171 1   
   170  164  165 1   
   171  164  172 1   
   172  164  173 1   
   173  165  166 1   
   174  165  167 1   
   175  174  175 1   
   176  174  179 1   
   177  175  176 1   
   178  175  177 1   
   179  175  178 1   
   180  181  182 1   
   181  181  183 1   
   182  184  185 1   
   183  184  186 1   
   184  187  188 1   
   185  187  189 1   
   186  190  191 1   
   187  190  192 1   
   188  193  194 1   
   189  193  195 1   
   190  196  197 1   
   191  196  198 1   
@<TRIPOS>SUBSTRUCTURE
     1 MOL         1 TEMP              0 ****  ****    0 ROOT
