@<TRIPOS>MOLECULE
MOL
  186   183     1     0     0
SMALL
resp


@<TRIPOS>ATOM
      1 C1         -4.3200    3.4350    3.8350 c3        1 MOL     -0.382852
      2 C2         -5.0690    2.6700    2.8100 c         1 MOL      0.776111
      3 O1         -4.5230    2.2750    1.8150 o         1 MOL     -0.625149
      4 H1         -3.2710    3.1380    3.8150 hc        1 MOL      0.105049
      5 H2         -4.3990    4.5020    3.6230 hc        1 MOL      0.105049
      6 H3         -4.7370    3.2290    4.8210 hc        1 MOL      0.105049
      7 N1         -6.3600    2.2660    2.9980 n         1 MOL     -0.739617
      8 C3         -7.1470    1.2000    2.3080 c3        1 MOL      0.078786
      9 C4         -6.2540    0.1540    1.7630 c         1 MOL      0.277454
     10 O2         -5.9340    0.1570    0.5810 o         1 MOL     -0.207197
     11 C5         -8.1480    1.7430    1.3900 c3        1 MOL     -0.033953
     12 C6         -7.7590    2.8680    0.4340 c         1 MOL      0.711353
     13 O3         -6.6500    3.0280   -0.0760 o         1 MOL     -0.716637
     14 O4         -8.7280    3.5480    0.1070 o         1 MOL     -0.716637
     15 H4         -6.8790    2.5630    3.8080 hn        1 MOL      0.351498
     16 H5         -7.7300    0.7480    3.1030 h1        1 MOL      0.054684
     17 H6         -8.9900    2.0580    2.0020 hc        1 MOL      0.013641
     18 H7         -8.6020    0.9660    0.7690 hc        1 MOL      0.013641
     19 N2         -5.7760   -0.8050    2.5880 n         1 MOL     -0.435484
     20 C7         -4.8340   -1.9170    2.3310 c3        1 MOL      0.006251
     21 C8         -5.3350   -2.9500    1.2570 c         1 MOL      0.406539
     22 O5         -5.0920   -4.1470    1.4050 o         1 MOL     -0.572826
     23 C9         -3.3910   -1.3770    2.1050 c3        1 MOL      0.261415
     24 C10        -2.2850   -2.3840    1.8000 c3        1 MOL     -0.212307
     25 C11        -2.9410   -0.2360    3.0960 c3        1 MOL     -0.008190
     26 C12        -1.9080   -3.3850    2.9550 c3        1 MOL     -0.267282
     27 H8         -6.1250   -0.7390    3.5320 hn        1 MOL      0.280168
     28 H9         -4.7350   -2.4800    3.2650 h1        1 MOL      0.053820
     29 H10        -3.5590   -0.8170    1.1860 hc        1 MOL     -0.086576
     30 H11        -1.3570   -1.8400    1.6140 hc        1 MOL      0.117663
     31 H12        -2.6270   -2.8590    0.8820 hc        1 MOL      0.117663
     32 H13        -2.1040    0.3230    2.6840 hc        1 MOL     -0.018245
     33 H14        -3.6920    0.5270    3.2800 hc        1 MOL     -0.018245
     34 H15        -2.6440   -0.6500    4.0600 hc        1 MOL     -0.018245
     35 H16        -2.8500   -3.8230    3.2690 hc        1 MOL      0.060690
     36 H17        -1.2550   -4.1700    2.5830 hc        1 MOL      0.060690
     37 H18        -1.3990   -2.9100    3.7960 hc        1 MOL      0.060690
     38 N3         -6.0160   -2.5110    0.2210 n         1 MOL     -0.096350
     39 C13        -6.7110   -3.3550   -0.7560 c3        1 MOL      0.025770
     40 C14        -5.9570   -4.5630   -1.4220 c         1 MOL      0.692798
     41 O6         -6.6060   -5.5560   -1.5290 o         1 MOL     -0.617859
     42 C15        -7.4700   -2.5350   -1.8730 c3        1 MOL     -0.232858
     43 C16        -8.4600   -1.4440   -1.3290 c         1 MOL      0.759846
     44 O7         -9.1770   -1.6770   -0.3700 o         1 MOL     -0.702681
     45 O8         -8.5370   -0.4060   -1.9860 o         1 MOL     -0.702681
     46 H19        -6.0440   -1.5040    0.2040 hn        1 MOL      0.082671
     47 H20        -7.5040   -3.8120   -0.1750 h1        1 MOL      0.027809
     48 H21        -8.1300   -3.2050   -2.4100 hc        1 MOL      0.052404
     49 H22        -6.7360   -2.0870   -2.5520 hc        1 MOL      0.052404
     50 N4         -4.6920   -4.5870   -1.7530 n         1 MOL     -0.636012
     51 C17        -3.8440   -3.4420   -2.0140 c3        1 MOL      0.313610
     52 C18        -4.2540   -2.6610   -3.2560 c         1 MOL      0.305597
     53 O9         -5.1670   -3.1000   -3.9430 o         1 MOL     -0.529160
     54 H23        -4.3090   -5.4940   -1.9610 hn        1 MOL      0.304803
     55 H24        -2.8070   -3.7630   -2.1010 h1        1 MOL      0.030938
     56 H25        -3.9500   -2.7340   -1.1830 h1        1 MOL      0.030938
     57 N5         -3.6120   -1.5990   -3.7460 n         1 MOL     -0.230036
     58 C19        -2.2820   -1.1390   -3.2590 c3        1 MOL      0.029835
     59 C20        -2.4070   -0.6850   -1.7780 c         1 MOL     -0.135859
     60 O10        -3.4760   -0.3720   -1.3040 o         1 MOL     -0.339534
     61 C21        -1.8410    0.0390   -4.1260 c3        1 MOL     -0.086311
     62 C22        -2.7090    1.2920   -4.0150 c         1 MOL      0.640473
     63 O11        -3.4620    1.5920   -4.9530 o         1 MOL     -0.670202
     64 O12        -2.8200    1.8420   -2.8630 o         1 MOL     -0.670202
     65 H26        -3.8560   -1.4530   -4.7100 hn        1 MOL      0.278117
     66 H27        -1.5060   -1.8990   -3.2790 h1        1 MOL      0.030790
     67 H28        -1.8230   -0.3740   -5.1400 hc        1 MOL      0.015146
     68 H29        -0.8060    0.2810   -3.8840 hc        1 MOL      0.015146
     69 N6         -1.2980   -0.4820   -1.0560 n         1 MOL     -0.172088
     70 C23         0.0470   -1.0190   -1.3460 c3        1 MOL      0.361347
     71 C24         0.1910   -2.5180   -1.0490 c         1 MOL      0.489160
     72 O13        -0.7390   -3.3160   -1.3050 o         1 MOL     -0.490517
     73 H30        -1.4930   -0.2460   -0.0930 hn        1 MOL      0.068977
     74 H31         0.7460   -0.3680   -0.8210 h1        1 MOL     -0.003568
     75 H32         0.3980   -0.9500   -2.3740 h1        1 MOL     -0.003568
     76 N7          1.4030   -2.9070   -0.6150 n         1 MOL     -0.540764
     77 C25         1.8810   -4.2700   -0.4480 c3        1 MOL      0.025836
     78 C26         2.7290   -4.5420    0.7970 c         1 MOL      0.378054
     79 O14         3.3710   -5.5850    0.8310 o         1 MOL     -0.499083
     80 C27         2.6140   -4.6730   -1.7630 c3        1 MOL     -0.031821
     81 C28         4.0230   -4.0100   -1.7810 c3        1 MOL     -0.189291
     82 C29         4.0690   -2.4710   -1.8000 c         1 MOL      0.534314
     83 N8          4.1980   -1.8730   -2.9220 n         1 MOL     -0.698975
     84 O15         4.0290   -1.8120   -0.7880 o         1 MOL     -0.370809
     85 H33         2.0500   -2.1350   -0.6280 hn        1 MOL      0.207298
     86 H34         1.0120   -4.9260   -0.4530 h1        1 MOL      0.115354
     87 H35         1.9750   -4.3540   -2.5890 hc        1 MOL      0.060794
     88 H36         2.7670   -5.7590   -1.8020 hc        1 MOL      0.060794
     89 H37         4.4890   -4.4100   -2.6900 hc        1 MOL      0.077731
     90 H38         4.6530   -4.3110   -0.9460 hc        1 MOL      0.077731
     91 H39         4.2820   -2.2990   -3.8300 hn        1 MOL      0.357229
     92 H40         4.1100   -0.8660   -2.9330 hn        1 MOL      0.357229
     93 N9          2.7980   -3.5710    1.6910 n         1 MOL     -0.118403
     94 C30         3.5910   -3.7460    2.9040 c3        1 MOL     -0.065526
     95 C31         4.9670   -3.0010    2.9170 c         1 MOL      0.518820
     96 O16         5.8320   -3.2720    3.7190 o         1 MOL     -0.580199
     97 C32         2.8580   -3.3650    4.2190 c3        1 MOL      0.141195
     98 C33         1.5270   -4.2660    4.4150 c3        1 MOL     -0.123735
     99 C34         2.4150   -1.9070    4.1720 c3        1 MOL     -0.123735
    100 H41         2.2660   -2.7190    1.5920 hn        1 MOL      0.231854
    101 H42         3.9290   -4.7770    2.9850 h1        1 MOL      0.072646
    102 H43         3.4870   -3.5980    5.0810 hc        1 MOL      0.005888
    103 H44         0.8290   -4.0080    3.6110 hc        1 MOL      0.025149
    104 H45         1.6650   -5.3440    4.4340 hc        1 MOL      0.025149
    105 H46         1.0670   -4.0200    5.3680 hc        1 MOL      0.025149
    106 H47         1.6290   -1.7710    3.4390 hc        1 MOL      0.025149
    107 H48         2.1470   -1.5300    5.1630 hc        1 MOL      0.025149
    108 H49         3.2360   -1.3000    3.8040 hc        1 MOL      0.025149
    109 N10         5.2130   -2.1200    1.9940 n         1 MOL     -0.287407
    110 C35         6.5130   -1.5570    1.5980 c3        1 MOL      0.061738
    111 C36         6.4220   -0.1370    1.1580 c         1 MOL      0.541304
    112 O17         7.1320    0.6210    1.7560 o         1 MOL     -0.569919
    113 C37         7.1420   -2.3850    0.4590 c3        1 MOL     -0.216682
    114 C38         7.5330   -3.7880    0.8100 c         1 MOL      0.723818
    115 N11         7.8210   -4.0840    2.0730 n         1 MOL     -0.834800
    116 O18         7.6910   -4.5280   -0.1040 o         1 MOL     -0.598239
    117 H50         4.4260   -2.0200    1.3660 hn        1 MOL      0.102294
    118 H51         7.1800   -1.5210    2.4500 h1        1 MOL      0.065755
    119 H52         8.0920   -1.8860    0.2660 hc        1 MOL      0.061012
    120 H53         6.6170   -2.2960   -0.4930 hc        1 MOL      0.061012
    121 H54         7.3480   -3.5460    2.7910 hn        1 MOL      0.371585
    122 H55         8.2820   -4.9580    2.2780 hn        1 MOL      0.371585
    123 N12         5.6150    0.2420    0.1720 n         1 MOL     -0.313279
    124 C39         5.6180    1.6000   -0.3350 c3        1 MOL      0.051360
    125 C40         4.2400    2.2290   -0.3670 c         1 MOL      0.485942
    126 O19         3.2310    1.5650   -0.2640 o         1 MOL     -0.497723
    127 C41         5.9950    1.5830   -1.8430 c3        1 MOL      0.059934
    128 C42         7.3470    1.0250   -2.0960 ca        1 MOL     -0.011306
    129 C43         8.4480    1.6100   -1.5290 ca        1 MOL     -0.114925
    130 C44         7.4500   -0.1100   -2.8580 ca        1 MOL     -0.114925
    131 C45         9.7370    1.1480   -1.8510 ca        1 MOL     -0.238262
    132 C46         8.7850   -0.5300   -3.2320 ca        1 MOL     -0.238262
    133 C47         9.9330    0.0190   -2.6560 ca        1 MOL      0.328122
    134 O20        11.2130   -0.2970   -3.0190 oh        1 MOL     -0.530172
    135 H56         5.0300   -0.5160   -0.1620 hn        1 MOL      0.146338
    136 H57         6.3650    2.2150    0.1690 h1        1 MOL      0.064280
    137 H58         6.0350    2.5620   -2.3280 hc        1 MOL      0.017854
    138 H59         5.1930    1.0500   -2.3360 hc        1 MOL      0.017854
    139 H60         8.2870    2.5080   -0.9420 ha        1 MOL      0.114114
    140 H61         6.6110   -0.5760   -3.3590 ha        1 MOL      0.114114
    141 H62        10.6410    1.6530   -1.5550 ha        1 MOL      0.122332
    142 H63         8.8100   -1.3950   -3.8800 ha        1 MOL      0.122332
    143 H64        11.8890    0.0480   -2.4250 ho        1 MOL      0.382585
    144 N13         4.1910    3.5410   -0.4630 n         1 MOL     -0.554938
    145 C48         3.1670    4.6030   -0.4990 c3        1 MOL      0.256383
    146 C49         2.3760    4.8740    0.7800 c         1 MOL      0.211132
    147 O21         2.1150    6.0910    1.0920 o         1 MOL     -0.471698
    148 C50         2.2590    4.5010   -1.7070 c3        1 MOL      0.104094
    149 C51         3.1000    4.6380   -3.0590 c3        1 MOL     -0.250674
    150 C52         3.1900    6.1510   -3.5060 c         1 MOL      0.689627
    151 O22         4.2790    6.4950   -4.0030 o         1 MOL     -0.724962
    152 O23         2.2270    6.9660   -3.3750 o         1 MOL     -0.724962
    153 H65         5.0940    3.9700   -0.4270 hn        1 MOL      0.285929
    154 H66         3.6450    5.5740   -0.5880 h1        1 MOL      0.035728
    155 H67         1.4490    5.2250   -1.6920 hc        1 MOL      0.025632
    156 H68         1.7370    3.5460   -1.6730 hc        1 MOL      0.025632
    157 H69         2.4770    4.1020   -3.7890 hc        1 MOL      0.019870
    158 H70         4.0630    4.1240   -3.0710 hc        1 MOL      0.019870
    159 N14         2.1140    3.8460    1.6110 n         1 MOL     -0.246865
    160 C53         0.9990    3.8290    2.5610 c3        1 MOL     -0.038784
    161 C54         1.3590    4.2780    3.9750 c         1 MOL      0.397099
    162 O24         0.4920    4.8240    4.7350 o         1 MOL     -0.530960
    163 C55         0.3770    2.4520    2.4870 c3        1 MOL      0.027410
    164 C56         0.0990    1.9330    1.0320 c3        1 MOL      0.437586
    165 C57        -1.0650    2.7390    0.4380 c         1 MOL      0.528433
    166 O25        -2.1740    2.1620    0.3950 o         1 MOL     -0.601903
    167 O26        -0.9240    3.8960    0.0260 o         1 MOL     -0.601903
    168 H71         2.6130    3.0120    1.3480 hn        1 MOL      0.220979
    169 H72         0.1650    4.4470    2.2540 h1        1 MOL      0.160449
    170 H73        -0.4890    2.5230    3.1510 hc        1 MOL     -0.036272
    171 H74         1.1340    1.8240    2.9500 hc        1 MOL     -0.036272
    172 H75        -0.0560    0.8530    1.1020 hc        1 MOL     -0.189851
    173 H76         0.9820    2.0520    0.3990 hc        1 MOL     -0.189851
    174 N15         2.6710    4.3100    4.3260 n         1 MOL     -0.162099
    175 C58         3.3010    4.8810    5.5750 c3        1 MOL     -0.368824
    176 H77         4.3840    4.9110    5.4530 h1        1 MOL      0.137836
    177 H78         2.9270    5.8910    5.7430 h1        1 MOL      0.137836
    178 H79         3.0500    4.2530    6.4290 h1        1 MOL      0.137836
    179 H80         3.3000    3.9740    3.6210 hn        1 MOL      0.184771
    180 Ca1        -4.3910    2.1250   -0.7450 Ca        1 MOL      1.764266
    181 O27        -3.5230    4.5470   -0.8810 oh        1 MOL     -0.979608
    182 H81        -3.7650    5.4130   -1.2190 ho        1 MOL      0.445350
    183 H82        -2.5930    4.6270   -0.6800 ho        1 MOL      0.445350
    184 O28        -6.3230    0.9760   -2.5220 oh        1 MOL     -0.979608
    185 H83        -7.0120    0.3800   -2.2090 ho        1 MOL      0.445350
    186 H84        -6.3310    0.8710   -3.4780 ho        1 MOL      0.445350
@<TRIPOS>BOND
     1    1    2 1   
     2    1    4 1   
     3    1    5 1   
     4    1    6 1   
     5    2    3 2   
     6    2    7 1   
     7    7    8 1   
     8    7   15 1   
     9    8    9 1   
    10    8   11 1   
    11    8   16 1   
    12    9   10 2   
    13    9   19 1   
    14   11   12 1   
    15   11   17 1   
    16   11   18 1   
    17   12   13 1   
    18   12   14 1   
    19   19   20 1   
    20   19   27 1   
    21   20   21 1   
    22   20   23 1   
    23   20   28 1   
    24   21   22 2   
    25   21   38 1   
    26   23   24 1   
    27   23   25 1   
    28   23   29 1   
    29   24   26 1   
    30   24   30 1   
    31   24   31 1   
    32   25   32 1   
    33   25   33 1   
    34   25   34 1   
    35   26   35 1   
    36   26   36 1   
    37   26   37 1   
    38   38   39 1   
    39   38   46 1   
    40   39   40 1   
    41   39   42 1   
    42   39   47 1   
    43   40   41 2   
    44   40   50 1   
    45   42   43 1   
    46   42   48 1   
    47   42   49 1   
    48   43   44 1   
    49   43   45 1   
    50   50   51 1   
    51   50   54 1   
    52   51   52 1   
    53   51   55 1   
    54   51   56 1   
    55   52   53 2   
    56   52   57 1   
    57   57   58 1   
    58   57   65 1   
    59   58   59 1   
    60   58   61 1   
    61   58   66 1   
    62   59   60 2   
    63   59   69 1   
    64   61   62 1   
    65   61   67 1   
    66   61   68 1   
    67   62   63 1   
    68   62   64 1   
    69   69   70 1   
    70   69   73 1   
    71   70   71 1   
    72   70   74 1   
    73   70   75 1   
    74   71   72 2   
    75   71   76 1   
    76   76   77 1   
    77   76   85 1   
    78   77   78 1   
    79   77   80 1   
    80   77   86 1   
    81   78   79 2   
    82   78   93 1   
    83   80   81 1   
    84   80   87 1   
    85   80   88 1   
    86   81   82 1   
    87   81   89 1   
    88   81   90 1   
    89   82   83 1   
    90   82   84 2   
    91   83   91 1   
    92   83   92 1   
    93   93   94 1   
    94   93  100 1   
    95   94   95 1   
    96   94   97 1   
    97   94  101 1   
    98   95   96 2   
    99   95  109 1   
   100   97   98 1   
   101   97   99 1   
   102   97  102 1   
   103   98  103 1   
   104   98  104 1   
   105   98  105 1   
   106   99  106 1   
   107   99  107 1   
   108   99  108 1   
   109  109  110 1   
   110  109  117 1   
   111  110  111 1   
   112  110  113 1   
   113  110  118 1   
   114  111  112 2   
   115  111  123 1   
   116  113  114 1   
   117  113  119 1   
   118  113  120 1   
   119  114  115 1   
   120  114  116 2   
   121  115  121 1   
   122  115  122 1   
   123  123  124 1   
   124  123  135 1   
   125  124  125 1   
   126  124  127 1   
   127  124  136 1   
   128  125  126 2   
   129  125  144 1   
   130  127  128 1   
   131  127  137 1   
   132  127  138 1   
   133  128  129 ar  
   134  128  130 ar  
   135  129  131 ar  
   136  129  139 1   
   137  130  132 ar  
   138  130  140 1   
   139  131  133 ar  
   140  131  141 1   
   141  132  133 ar  
   142  132  142 1   
   143  133  134 1   
   144  134  143 1   
   145  144  145 1   
   146  144  153 1   
   147  145  146 1   
   148  145  148 1   
   149  145  154 1   
   150  146  147 2   
   151  146  159 1   
   152  148  149 1   
   153  148  155 1   
   154  148  156 1   
   155  149  150 1   
   156  149  157 1   
   157  149  158 1   
   158  150  151 1   
   159  150  152 1   
   160  159  160 1   
   161  159  168 1   
   162  160  161 1   
   163  160  163 1   
   164  160  169 1   
   165  161  162 2   
   166  161  174 1   
   167  163  164 1   
   168  163  170 1   
   169  163  171 1   
   170  164  165 1   
   171  164  172 1   
   172  164  173 1   
   173  165  166 1   
   174  165  167 1   
   175  174  175 1   
   176  174  179 1   
   177  175  176 1   
   178  175  177 1   
   179  175  178 1   
   180  181  182 1   
   181  181  183 1   
   182  184  185 1   
   183  184  186 1   
@<TRIPOS>SUBSTRUCTURE
     1 MOL         1 TEMP              0 ****  ****    0 ROOT
