@<TRIPOS>MOLECULE
MOL
  192   187     1     0     0
SMALL
resp


@<TRIPOS>ATOM
      1 C1         -6.9390   -4.0650    3.6180 c3        1 MOL     -0.224328
      2 C2         -6.0490   -3.1700    2.7300 c         1 MOL      0.799796
      3 O1         -5.7760   -3.5680    1.6090 o         1 MOL     -0.585735
      4 H1         -7.1930   -3.5280    4.5330 hc        1 MOL      0.056839
      5 H2         -7.8520   -4.3180    3.0800 hc        1 MOL      0.056839
      6 H3         -6.4000   -4.9780    3.8700 hc        1 MOL      0.056839
      7 N1         -5.6520   -1.9250    3.1530 n         1 MOL     -0.873757
      8 C3         -5.2330   -0.8000    2.3160 c3        1 MOL      0.611640
      9 C4         -3.7340   -0.9000    1.8610 c         1 MOL     -0.041587
     10 O2         -3.2630   -0.0410    1.1910 o         1 MOL     -0.006046
     11 C5         -5.5780    0.5470    2.9170 c3        1 MOL     -0.222824
     12 C6         -5.3190    0.6340    4.4050 c         1 MOL      0.741486
     13 O3         -6.1030    0.0050    5.1300 o         1 MOL     -0.708831
     14 O4         -4.4110    1.4050    4.8690 o         1 MOL     -0.708831
     15 H4         -5.8360   -1.7060    4.1190 hn        1 MOL      0.377010
     16 H5         -5.9260   -0.8240    1.4770 h1        1 MOL      0.035484
     17 H6         -6.5950    0.7100    2.5670 hc        1 MOL      0.020637
     18 H7         -4.8290    1.2430    2.5280 hc        1 MOL      0.020637
     19 N2         -2.9000   -1.8560    2.2880 n         1 MOL     -0.261422
     20 C7         -1.4130   -1.8150    2.3170 c3        1 MOL      0.039843
     21 C8         -0.7910   -2.8980    1.4130 c         1 MOL      0.426309
     22 O5         -1.2850   -3.9980    1.5680 o         1 MOL     -0.488214
     23 C9         -0.8780   -1.8490    3.7430 c3        1 MOL     -0.208921
     24 C10        -1.4980   -0.7010    4.5940 c3        1 MOL      0.194535
     25 C11        -0.6530   -0.6440    5.8880 c3        1 MOL      0.111827
     26 C12        -1.3910   -0.0330    6.9820 c3        1 MOL     -0.106744
     27 N3         -2.0730    1.2720    6.6290 n4        1 MOL     -0.171537
     28 H8         -3.3540   -2.6810    2.6570 hn        1 MOL      0.269675
     29 H9         -1.0770   -0.8410    1.9470 h1        1 MOL     -0.083377
     30 H10         0.1960   -1.7440    3.7990 hc        1 MOL      0.072276
     31 H11        -1.1250   -2.8030    4.2170 hc        1 MOL      0.072276
     32 H12        -2.5120   -0.8530    4.9700 hc        1 MOL     -0.042306
     33 H13        -1.3300    0.2730    4.1400 hc        1 MOL     -0.042306
     34 H14         0.3590   -0.2410    5.7520 hc        1 MOL      0.003944
     35 H15        -0.4500   -1.6480    6.2500 hc        1 MOL      0.003944
     36 H16        -0.6840    0.2430    7.7560 hx        1 MOL      0.088310
     37 H17        -2.1980   -0.6540    7.3710 hx        1 MOL      0.088310
     38 H18        -1.4350    1.9220    6.1920 hn        1 MOL      0.261368
     39 H19        -2.8730    1.1670    6.0120 hn        1 MOL      0.261368
     40 H20        -2.4840    1.6550    7.4740 hn        1 MOL      0.261368
     41 N4          0.2730   -2.6560    0.5920 n         1 MOL     -0.117151
     42 C13         0.9950   -1.3600    0.3620 c3        1 MOL     -0.057705
     43 C14         1.5270   -0.5970    1.5560 c         1 MOL      0.623479
     44 O6          1.0040    0.4720    1.9490 o         1 MOL     -0.605545
     45 C15         0.2200   -0.4430   -0.6090 c3        1 MOL     -0.599721
     46 C16         0.0390   -0.9730   -2.0220 c         1 MOL      0.676514
     47 O7          0.7410   -1.9560   -2.4790 o         1 MOL     -0.668452
     48 O8         -0.7060   -0.3570   -2.8200 o         1 MOL     -0.668452
     49 H21         0.5300   -3.4330   -0.0040 hn        1 MOL      0.078105
     50 H22         1.8140   -1.6270   -0.3080 h1        1 MOL     -0.028006
     51 H23         0.7510    0.4990   -0.5650 hc        1 MOL      0.290094
     52 H24        -0.7860   -0.2120   -0.2500 hc        1 MOL      0.290094
     53 N5          2.3930   -1.1980    2.3760 n         1 MOL     -0.326792
     54 C17         3.1200   -2.4360    2.0950 c3        1 MOL      0.015606
     55 C18         4.1370   -2.8390    3.1580 c         1 MOL      0.431157
     56 O9          3.9920   -2.4660    4.3280 o         1 MOL     -0.516319
     57 H25         2.7830   -0.6800    3.1520 hn        1 MOL      0.285425
     58 H26         3.6290   -2.3020    1.1440 h1        1 MOL      0.071329
     59 H27         2.3740   -3.2110    1.9590 h1        1 MOL      0.071329
     60 N6          5.1780   -3.6640    2.8510 n         1 MOL     -0.315658
     61 C19         5.4780   -4.1460    1.5100 c3        1 MOL     -0.005595
     62 C20         6.2330   -3.0940    0.5800 c         1 MOL      0.515189
     63 O10         6.7660   -2.0890    1.1210 o         1 MOL     -0.446271
     64 C21         6.4230   -5.3670    1.7750 c3        1 MOL     -0.076929
     65 C22         7.7940   -5.0150    2.5370 c         1 MOL      0.627612
     66 O11         7.8530   -4.9630    3.8160 o         1 MOL     -0.614450
     67 O12         8.8270   -4.8250    1.8380 o         1 MOL     -0.614450
     68 H28         5.7350   -3.9700    3.6320 hn        1 MOL      0.262220
     69 H29         4.5890   -4.5310    1.0170 h1        1 MOL      0.001965
     70 H30         6.6320   -5.9080    0.8550 hc        1 MOL      0.000845
     71 H31         5.9130   -6.0350    2.4650 hc        1 MOL      0.000845
     72 N7          6.2300   -3.2930   -0.7470 n         1 MOL     -0.481107
     73 C23         7.0810   -2.5410   -1.6590 c3        1 MOL     -0.043169
     74 C24         6.6000   -1.1160   -1.9710 c         1 MOL      0.536089
     75 O13         7.2540   -0.4710   -2.8550 o         1 MOL     -0.568269
     76 H32         5.7930   -4.1330   -1.0980 hn        1 MOL      0.279153
     77 H33         7.1490   -3.0320   -2.6330 h1        1 MOL      0.107546
     78 H34         8.1040   -2.3870   -1.3350 h1        1 MOL      0.107546
     79 N8          5.5630   -0.6200   -1.2400 n         1 MOL     -0.481422
     80 C25         5.1200    0.7040   -1.5050 c3        1 MOL      0.280590
     81 C26         5.0250    1.6140   -0.3100 c         1 MOL      0.434047
     82 O14         4.5910    1.2130    0.7350 o         1 MOL     -0.517813
     83 C27         3.8570    0.7490   -2.3010 c3        1 MOL      0.169068
     84 C28         3.9650    0.1660   -3.7380 c3        1 MOL     -0.213301
     85 O15         3.4380    2.1230   -2.3730 oh        1 MOL     -0.631762
     86 H35         5.1590   -1.1600   -0.4770 hn        1 MOL      0.219445
     87 H36         5.9210    1.0830   -2.1560 h1        1 MOL      0.052953
     88 H37         3.0620    0.1990   -1.8030 h1        1 MOL      0.082699
     89 H38         2.6580    2.1970   -2.9200 ho        1 MOL      0.438737
     90 H39         4.7130    0.7320   -4.2970 hc        1 MOL      0.044604
     91 H40         4.3010   -0.8700   -3.7430 hc        1 MOL      0.044604
     92 H41         3.0580    0.2080   -4.3460 hc        1 MOL      0.044604
     93 N9          5.3880    2.8510   -0.5540 n         1 MOL     -0.307260
     94 C29         5.3170    4.0290    0.4000 c3        1 MOL      0.036112
     95 C30         4.0920    4.9150    0.3480 c         1 MOL      0.379801
     96 O16         3.9030    5.7520    1.2150 o         1 MOL     -0.525481
     97 C31         6.5380    4.9410    0.3270 c3        1 MOL      0.085845
     98 C32         6.7960    5.5420   -1.1220 c3        1 MOL      0.373336
     99 C33         7.8890    4.2770    0.7000 c3        1 MOL     -0.186956
    100 C34         7.4260    6.9170   -1.1680 c3        1 MOL     -0.449173
    101 H42         5.6890    2.9050   -1.5120 hn        1 MOL      0.182103
    102 H43         5.3320    3.6380    1.4240 h1        1 MOL      0.108614
    103 H44         6.3660    5.8120    0.9540 hc        1 MOL     -0.007437
    104 H45         5.8760    5.5510   -1.7030 hc        1 MOL     -0.080292
    105 H46         7.4320    4.8210   -1.6320 hc        1 MOL     -0.080292
    106 H47         7.9800    3.3590    0.1260 hc        1 MOL      0.043328
    107 H48         8.6980    4.9750    0.4900 hc        1 MOL      0.043328
    108 H49         7.9580    4.0140    1.7600 hc        1 MOL      0.043328
    109 H50         6.8730    7.3860   -1.9890 hc        1 MOL      0.100876
    110 H51         7.1080    7.5080   -0.3030 hc        1 MOL      0.100876
    111 H52         8.5150    6.9070   -1.2350 hc        1 MOL      0.100876
    112 N10         3.1680    4.6200   -0.5860 n         1 MOL     -0.125720
    113 C35         1.7020    4.9810   -0.4530 c3        1 MOL     -0.189301
    114 C36         0.6610    3.8530   -0.4410 c         1 MOL      0.553059
    115 O17         0.7280    2.8250   -1.1780 o         1 MOL     -0.517870
    116 C37         1.2240    6.0770   -1.4580 c3        1 MOL      0.303465
    117 C38         1.7080    5.6650   -2.8300 c3        1 MOL     -0.093540
    118 O18         1.8280    7.2690   -1.2170 oh        1 MOL     -0.569427
    119 H53         3.3530    3.9340   -1.2960 hn        1 MOL      0.148061
    120 H54         1.5920    5.2940    0.5850 h1        1 MOL      0.120825
    121 H55         0.1380    6.1160   -1.5700 h1        1 MOL      0.009863
    122 H56         1.5330    7.5920   -0.3570 ho        1 MOL      0.366458
    123 H57         1.1460    4.7980   -3.1600 hc        1 MOL      0.024317
    124 H58         1.4190    6.4690   -3.4980 hc        1 MOL      0.024317
    125 H59         2.7690    5.4200   -2.9350 hc        1 MOL      0.024317
    126 N11        -0.3160    3.9220    0.4230 n         1 MOL     -0.417991
    127 C39        -1.4500    3.0190    0.5920 c3        1 MOL      0.066427
    128 C40        -2.6830    3.3260   -0.3030 c         1 MOL      0.560799
    129 O19        -2.9400    4.4470   -0.7740 o         1 MOL     -0.591417
    130 C41        -1.8010    2.8160    2.0350 c3        1 MOL      0.448213
    131 C42        -2.2070    4.1450    2.7640 c3        1 MOL     -0.593293
    132 O20        -0.6540    2.3400    2.6780 oh        1 MOL     -0.649507
    133 H60        -0.4080    4.8590    0.8100 hn        1 MOL      0.204729
    134 H61        -1.0160    2.0890    0.1980 h1        1 MOL      0.024249
    135 H62        -2.5870    2.0550    2.0720 h1        1 MOL     -0.026337
    136 H63        -0.2810    1.5140    2.3710 ho        1 MOL      0.443891
    137 H64        -2.3190    3.8790    3.8120 hc        1 MOL      0.156366
    138 H65        -1.3410    4.7960    2.6410 hc        1 MOL      0.156366
    139 H66        -3.0890    4.5690    2.2810 hc        1 MOL      0.156366
    140 N12        -3.4370    2.2540   -0.4770 n         1 MOL     -0.263514
    141 C43        -4.6280    2.1960   -1.4000 c3        1 MOL     -0.001818
    142 C44        -4.5960    0.9390   -2.2770 c         1 MOL      0.625435
    143 O21        -4.8610    1.0620   -3.4660 o         1 MOL     -0.601519
    144 C45        -5.8600    2.2650   -0.4430 c3        1 MOL     -0.089363
    145 C46        -7.2650    2.0610   -1.1180 c3        1 MOL     -0.060169
    146 C47        -7.6680    3.2930   -1.8970 c3        1 MOL     -0.009675
    147 C48        -8.0210    4.5150   -0.8980 c3        1 MOL      0.040276
    148 N13        -8.4010    5.7180   -1.7330 n4        1 MOL     -0.366986
    149 H67        -3.1850    1.4250    0.0450 hn        1 MOL     -0.116551
    150 H68        -4.6560    3.0170   -2.1130 h1        1 MOL      0.086844
    151 H69        -5.8210    3.1920    0.1330 hc        1 MOL      0.036618
    152 H70        -5.8170    1.4240    0.2520 hc        1 MOL      0.036618
    153 H71        -8.0830    1.9700   -0.4050 hc        1 MOL      0.063181
    154 H72        -7.2370    1.2270   -1.8160 hc        1 MOL      0.063181
    155 H73        -8.4820    3.0530   -2.5710 hc        1 MOL      0.024570
    156 H74        -6.8410    3.6250   -2.5200 hc        1 MOL      0.024570
    157 H75        -7.1370    4.7390   -0.2950 hx        1 MOL      0.080665
    158 H76        -8.8270    4.1220   -0.2740 hx        1 MOL      0.080665
    159 H77        -9.0000    5.5400   -2.5290 hn        1 MOL      0.327415
    160 H78        -8.8220    6.4230   -1.1380 hn        1 MOL      0.327415
    161 H79        -7.5600    6.1350   -2.1080 hn        1 MOL      0.327415
    162 N14        -4.2810   -0.2200   -1.6700 n         1 MOL      0.023347
    163 C49        -4.3630   -1.5430   -2.2560 c3        1 MOL     -0.521612
    164 C50        -5.8730   -1.8450   -2.5630 c         1 MOL      0.334841
    165 O22        -6.7480   -1.5780   -1.7180 o         1 MOL     -0.535754
    166 C51        -3.8010   -2.6740   -1.3290 c3        1 MOL      1.291098
    167 C52        -3.8410   -4.1470   -1.8300 c3        1 MOL     -0.568881
    168 C53        -3.2990   -4.3370   -3.2840 c         1 MOL      0.776049
    169 O23        -2.0590   -4.4630   -3.3980 o         1 MOL     -0.756878
    170 O24        -4.0790   -4.4950   -4.2480 o         1 MOL     -0.756878
    171 H80        -4.1190   -0.1300   -0.6770 hn        1 MOL     -0.060246
    172 H81        -3.8520   -1.5540   -3.2220 h1        1 MOL      0.165606
    173 H82        -4.2740   -2.6750   -0.3530 hc        1 MOL     -0.334986
    174 H83        -2.7350   -2.4430   -1.3050 hc        1 MOL     -0.334986
    175 H84        -4.8560   -4.5280   -1.6980 hc        1 MOL      0.110582
    176 H85        -3.1760   -4.5700   -1.0730 hc        1 MOL      0.110582
    177 N15        -6.2030   -2.3640   -3.7380 n         1 MOL     -0.129365
    178 C54        -7.5980   -2.6190   -4.2110 c3        1 MOL     -0.296356
    179 H86        -7.5840   -3.3880   -4.9830 h1        1 MOL      0.118923
    180 H87        -8.2100   -2.9570   -3.3740 h1        1 MOL      0.118923
    181 H88        -8.0170   -1.7000   -4.6210 h1        1 MOL      0.118923
    182 H89        -5.5010   -2.5430   -4.4490 hn        1 MOL      0.306241
    183 Ca1         0.4390   -4.1750   -3.8130 Ca        1 MOL      1.602656
    184 O25         2.6240   -2.7710   -4.9390 oh        1 MOL     -0.854128
    185 H90         2.3620   -2.0020   -5.4600 ho        1 MOL      0.420853
    186 H91         3.5680   -2.8360   -5.0610 ho        1 MOL      0.420853
    187 O26        -0.7690   -2.0240   -4.9930 oh        1 MOL     -0.854128
    188 H92        -0.7290   -1.4770   -4.2070 ho        1 MOL      0.420853
    189 H93        -0.2950   -1.5200   -5.6510 ho        1 MOL      0.420853
    190 O27         0.7860   -4.1670   -6.5020 oh        1 MOL     -0.854128
    191 H94         1.5240   -4.7630   -6.6740 ho        1 MOL      0.420853
    192 H95         0.3830   -4.0290   -7.3630 ho        1 MOL      0.420853
@<TRIPOS>BOND
     1    1    2 1   
     2    1    4 1   
     3    1    5 1   
     4    1    6 1   
     5    2    3 2   
     6    2    7 1   
     7    7    8 1   
     8    7   15 1   
     9    8    9 1   
    10    8   11 1   
    11    8   16 1   
    12    9   10 2   
    13    9   19 1   
    14   11   12 1   
    15   11   17 1   
    16   11   18 1   
    17   12   13 1   
    18   12   14 1   
    19   19   20 1   
    20   19   28 1   
    21   20   21 1   
    22   20   23 1   
    23   20   29 1   
    24   21   22 2   
    25   21   41 1   
    26   23   24 1   
    27   23   30 1   
    28   23   31 1   
    29   24   25 1   
    30   24   32 1   
    31   24   33 1   
    32   25   26 1   
    33   25   34 1   
    34   25   35 1   
    35   26   27 1   
    36   26   36 1   
    37   26   37 1   
    38   27   38 1   
    39   27   39 1   
    40   27   40 1   
    41   41   42 1   
    42   41   49 1   
    43   42   43 1   
    44   42   45 1   
    45   42   50 1   
    46   43   44 2   
    47   43   53 1   
    48   45   46 1   
    49   45   51 1   
    50   45   52 1   
    51   46   47 1   
    52   46   48 1   
    53   53   54 1   
    54   53   57 1   
    55   54   55 1   
    56   54   58 1   
    57   54   59 1   
    58   55   56 2   
    59   55   60 1   
    60   60   61 1   
    61   60   68 1   
    62   61   62 1   
    63   61   64 1   
    64   61   69 1   
    65   62   63 2   
    66   62   72 1   
    67   64   65 1   
    68   64   70 1   
    69   64   71 1   
    70   65   66 1   
    71   65   67 1   
    72   72   73 1   
    73   72   76 1   
    74   73   74 1   
    75   73   77 1   
    76   73   78 1   
    77   74   75 2   
    78   74   79 1   
    79   79   80 1   
    80   79   86 1   
    81   80   81 1   
    82   80   83 1   
    83   80   87 1   
    84   81   82 2   
    85   81   93 1   
    86   83   84 1   
    87   83   85 1   
    88   83   88 1   
    89   84   90 1   
    90   84   91 1   
    91   84   92 1   
    92   85   89 1   
    93   93   94 1   
    94   93  101 1   
    95   94   95 1   
    96   94   97 1   
    97   94  102 1   
    98   95   96 2   
    99   95  112 1   
   100   97   98 1   
   101   97   99 1   
   102   97  103 1   
   103   98  100 1   
   104   98  104 1   
   105   98  105 1   
   106   99  106 1   
   107   99  107 1   
   108   99  108 1   
   109  100  109 1   
   110  100  110 1   
   111  100  111 1   
   112  112  113 1   
   113  112  119 1   
   114  113  114 1   
   115  113  116 1   
   116  113  120 1   
   117  114  115 2   
   118  114  126 1   
   119  116  117 1   
   120  116  118 1   
   121  116  121 1   
   122  117  123 1   
   123  117  124 1   
   124  117  125 1   
   125  118  122 1   
   126  126  127 1   
   127  126  133 1   
   128  127  128 1   
   129  127  130 1   
   130  127  134 1   
   131  128  129 2   
   132  128  140 1   
   133  130  131 1   
   134  130  132 1   
   135  130  135 1   
   136  131  137 1   
   137  131  138 1   
   138  131  139 1   
   139  132  136 1   
   140  140  141 1   
   141  140  149 1   
   142  141  142 1   
   143  141  144 1   
   144  141  150 1   
   145  142  143 2   
   146  142  162 1   
   147  144  145 1   
   148  144  151 1   
   149  144  152 1   
   150  145  146 1   
   151  145  153 1   
   152  145  154 1   
   153  146  147 1   
   154  146  155 1   
   155  146  156 1   
   156  147  148 1   
   157  147  157 1   
   158  147  158 1   
   159  148  159 1   
   160  148  160 1   
   161  148  161 1   
   162  162  163 1   
   163  162  171 1   
   164  163  164 1   
   165  163  166 1   
   166  163  172 1   
   167  164  165 2   
   168  164  177 1   
   169  166  167 1   
   170  166  173 1   
   171  166  174 1   
   172  167  168 1   
   173  167  175 1   
   174  167  176 1   
   175  168  169 1   
   176  168  170 1   
   177  177  178 1   
   178  177  182 1   
   179  178  179 1   
   180  178  180 1   
   181  178  181 1   
   182  184  185 1   
   183  184  186 1   
   184  187  188 1   
   185  187  189 1   
   186  190  191 1   
   187  190  192 1   
@<TRIPOS>SUBSTRUCTURE
     1 MOL         1 TEMP              0 ****  ****    0 ROOT
