@<TRIPOS>MOLECULE
MOL
  198   191     1     0     0
SMALL
resp


@<TRIPOS>ATOM
      1 C1         -3.1020    3.1020    4.9700 c3        1 MOL     -0.304807
      2 C2         -4.2390    2.0250    4.7490 c         1 MOL      0.540553
      3 O1         -4.3290    1.0090    5.4340 o         1 MOL     -0.577168
      4 H1         -2.1370    2.6000    5.0470 hc        1 MOL      0.074428
      5 H2         -3.0850    3.7930    4.1270 hc        1 MOL      0.074428
      6 H3         -3.2970    3.6550    5.8890 hc        1 MOL      0.074428
      7 N1         -5.2230    2.3390    3.9160 n         1 MOL     -0.194232
      8 C3         -6.2460    1.4290    3.4080 c3        1 MOL     -0.291431
      9 C4         -6.1940    0.9810    1.9360 c         1 MOL      0.426886
     10 O2         -5.8130    1.6550    0.9980 o         1 MOL     -0.488590
     11 C5         -7.6490    2.1500    3.5330 c3        1 MOL     -0.023886
     12 C6         -7.6830    3.6140    3.0240 c         1 MOL      0.678421
     13 O3         -8.5390    4.3260    3.6080 o         1 MOL     -0.693561
     14 O4         -6.9100    4.0640    2.1410 o         1 MOL     -0.693561
     15 H4         -5.0880    3.2210    3.4380 hn        1 MOL      0.205961
     16 H5         -6.2210    0.5170    4.0030 h1        1 MOL      0.149808
     17 H6         -8.0590    2.1460    4.5440 hc        1 MOL      0.051373
     18 H7         -8.3880    1.6280    2.9230 hc        1 MOL      0.051373
     19 N2         -6.6260   -0.3120    1.7550 n         1 MOL     -0.442650
     20 C7         -6.8740   -0.9440    0.4310 c3        1 MOL      0.022242
     21 C8         -8.0380   -0.2890   -0.1860 c         1 MOL      0.582894
     22 O5         -9.0130   -0.0430    0.4870 o         1 MOL     -0.597172
     23 C9         -7.2260   -2.4490    0.7340 c3        1 MOL      0.043879
     24 C10        -5.8730   -3.1850    0.7520 c3        1 MOL      0.346533
     25 C11        -6.0920   -4.4950    1.5110 c3        1 MOL     -0.390031
     26 C12        -4.8810   -5.4470    1.1820 c3        1 MOL      0.268256
     27 N3         -4.9420   -6.6860    1.9910 n4        1 MOL     -0.375158
     28 H8         -6.8460   -0.8100    2.6030 hn        1 MOL      0.262972
     29 H9         -6.0350   -0.8130   -0.2400 h1        1 MOL      0.008850
     30 H10        -7.8560   -2.8580   -0.0520 hc        1 MOL     -0.012189
     31 H11        -7.7580   -2.5600    1.6820 hc        1 MOL     -0.012189
     32 H12        -5.1120   -2.5860    1.2400 hc        1 MOL     -0.082460
     33 H13        -5.6110   -3.2840   -0.2950 hc        1 MOL     -0.082460
     34 H14        -7.0670   -4.8960    1.2090 hc        1 MOL      0.098447
     35 H15        -6.1620   -4.3240    2.5850 hc        1 MOL      0.098447
     36 H16        -3.9520   -4.9160    1.3710 hx        1 MOL      0.043882
     37 H17        -4.8730   -5.7520    0.1380 hx        1 MOL      0.043882
     38 H18        -4.1010   -7.2220    1.8100 hn        1 MOL      0.308542
     39 H19        -5.0720   -6.5970    2.9940 hn        1 MOL      0.308542
     40 H20        -5.6620   -7.3080    1.6670 hn        1 MOL      0.308542
     41 N4         -7.9400    0.0080   -1.4790 n         1 MOL     -0.053919
     42 C13        -8.9380    0.8130   -2.2240 c3        1 MOL      0.267713
     43 C14        -9.9170    0.1670   -3.2330 c         1 MOL      0.414691
     44 O6        -10.3810    0.8390   -4.1500 o         1 MOL     -0.515337
     45 C15        -8.2160    1.9900   -2.8730 c3        1 MOL     -0.180780
     46 C16        -7.2490    2.6300   -1.9440 c         1 MOL      0.707117
     47 O7         -7.7660    3.1900   -0.9120 o         1 MOL     -0.758028
     48 O8         -6.0390    2.5280   -2.0540 o         1 MOL     -0.758028
     49 H21        -7.1100   -0.3420   -1.9300 hn        1 MOL      0.067864
     50 H22        -9.6600    1.2470   -1.5280 h1        1 MOL      0.008938
     51 H23        -8.9710    2.7440   -3.1210 hc        1 MOL      0.043243
     52 H24        -7.7190    1.5440   -3.7370 hc        1 MOL      0.043243
     53 N5        -10.1620   -1.1550   -3.2790 n         1 MOL     -0.412050
     54 C17        -9.8420   -2.2120   -2.3720 c3        1 MOL     -0.063021
     55 C18        -8.5690   -2.9880   -2.7830 c         1 MOL      0.623761
     56 O9         -8.4060   -4.0840   -2.2940 o         1 MOL     -0.615867
     57 H25       -10.8170   -1.5000   -3.9660 hn        1 MOL      0.305520
     58 H26       -10.6330   -2.9480   -2.5230 h1        1 MOL      0.046601
     59 H27        -9.8130   -1.9470   -1.3100 h1        1 MOL      0.046601
     60 N6         -7.6370   -2.3680   -3.5650 n         1 MOL     -0.441065
     61 C19        -6.2970   -2.8610   -3.8220 c3        1 MOL      0.215532
     62 C20        -5.2500   -2.0300   -3.0090 c         1 MOL      0.374190
     63 O10        -5.4860   -0.8520   -2.6880 o         1 MOL     -0.403906
     64 C21        -5.9680   -2.7300   -5.2990 c3        1 MOL     -0.274977
     65 C22        -6.0550   -1.2620   -5.7990 c         1 MOL      0.717976
     66 O11        -4.9900   -0.6090   -5.9790 o         1 MOL     -0.661807
     67 O12        -7.2030   -0.7980   -6.0070 o         1 MOL     -0.661807
     68 H28        -7.8870   -1.4260   -3.8220 hn        1 MOL      0.229956
     69 H29        -6.2030   -3.8760   -3.4440 h1        1 MOL      0.017511
     70 H30        -6.5920   -3.3830   -5.9080 hc        1 MOL      0.038673
     71 H31        -4.9420   -3.0560   -5.4670 hc        1 MOL      0.038673
     72 N7         -4.1410   -2.6420   -2.5760 n         1 MOL     -0.260332
     73 C23        -3.0430   -1.9810   -1.9080 c3        1 MOL     -0.096276
     74 C24        -2.3940   -2.7450   -0.6820 c         1 MOL      0.527351
     75 O13        -2.5100   -3.9580   -0.5660 o         1 MOL     -0.558863
     76 H32        -3.9570   -3.5830   -2.8940 hn        1 MOL      0.225952
     77 H33        -3.3920   -0.9910   -1.6290 h1        1 MOL      0.110544
     78 H34        -2.2950   -1.7610   -2.6730 h1        1 MOL      0.110544
     79 N8         -1.7360   -1.9670    0.1560 n         1 MOL     -0.400999
     80 C25        -1.0850   -2.1720    1.4630 c3        1 MOL      0.045741
     81 C26         0.0730   -1.2590    1.6940 c         1 MOL      0.507001
     82 O14         0.0330   -0.1810    1.1020 o         1 MOL     -0.476352
     83 C27        -2.0880   -1.8860    2.5380 c3        1 MOL      0.205166
     84 C28        -3.0030   -0.6750    2.4280 c3        1 MOL     -0.253162
     85 O15        -2.9040   -3.0630    2.5940 oh        1 MOL     -0.676592
     86 H35        -1.7020   -0.9970   -0.1280 hn        1 MOL      0.204494
     87 H36        -0.7270   -3.1970    1.5290 h1        1 MOL      0.108663
     88 H37        -1.5520   -1.7170    3.4750 h1        1 MOL      0.042756
     89 H38        -3.3950   -3.0160    3.4170 ho        1 MOL      0.425175
     90 H39        -2.4390    0.2500    2.3080 hc        1 MOL      0.096163
     91 H40        -3.6520   -0.8500    1.5670 hc        1 MOL      0.096163
     92 H41        -3.4900   -0.6810    3.3970 hc        1 MOL      0.096163
     93 N9          0.9810   -1.6050    2.6060 n         1 MOL     -0.581429
     94 C29         1.9680   -0.6310    3.0910 c3        1 MOL      0.034568
     95 C30         3.1530   -0.4570    2.1340 c         1 MOL      0.504196
     96 O16         3.5310    0.6090    1.6770 o         1 MOL     -0.520380
     97 C31         2.5500   -1.0240    4.4540 c3        1 MOL      0.015463
     98 C32         1.5820   -1.4320    5.5580 c3        1 MOL      0.184656
     99 C33         3.4220    0.0600    5.0820 c3        1 MOL     -0.410104
    100 C34         0.4300   -0.5550    5.8360 c3        1 MOL     -0.135065
    101 H42         1.0600   -2.5690    2.8990 hn        1 MOL      0.331635
    102 H43         1.4930    0.3440    3.1410 h1        1 MOL      0.101682
    103 H44         3.2850   -1.8230    4.3070 hc        1 MOL      0.014864
    104 H45         2.0860   -1.6210    6.4990 hc        1 MOL     -0.034190
    105 H46         1.2070   -2.4250    5.2970 hc        1 MOL     -0.034190
    106 H47         4.0290   -0.3070    5.9110 hc        1 MOL      0.122537
    107 H48         4.1160    0.4130    4.3110 hc        1 MOL      0.122537
    108 H49         2.7840    0.8140    5.5190 hc        1 MOL      0.122537
    109 H50        -0.1660   -0.3480    4.9520 hc        1 MOL      0.035444
    110 H51        -0.2610   -1.1390    6.4540 hc        1 MOL      0.035444
    111 H52         0.7670    0.3440    6.3380 hc        1 MOL      0.035444
    112 N10         3.6290   -1.6000    1.6490 n         1 MOL     -0.342751
    113 C35         4.7570   -1.8730    0.6630 c3        1 MOL      0.001338
    114 C36         5.7940   -2.9180    1.1430 c         1 MOL      0.576132
    115 O17         5.4430   -3.9160    1.7130 o         1 MOL     -0.545279
    116 C37         4.0980   -2.4500   -0.6630 c3        1 MOL      0.450577
    117 C38         3.3380   -1.4480   -1.4180 c3        1 MOL     -0.437379
    118 O18         5.0040   -2.9810   -1.4810 oh        1 MOL     -0.630502
    119 H53         3.2540   -2.4120    2.1290 hn        1 MOL      0.201058
    120 H54         5.3710   -0.9990    0.4550 h1        1 MOL      0.065933
    121 H55         3.4480   -3.2850   -0.3880 h1        1 MOL     -0.049444
    122 H56         4.5380   -3.5130   -2.1320 ho        1 MOL      0.415392
    123 H57         2.8620   -1.7940   -2.3390 hc        1 MOL      0.114673
    124 H58         2.6390   -0.9380   -0.7580 hc        1 MOL      0.114673
    125 H59         4.0660   -0.7360   -1.8170 hc        1 MOL      0.114673
    126 N11         7.0100   -2.5970    0.8060 n         1 MOL     -0.443293
    127 C39         8.2150   -3.3770    1.2460 c3        1 MOL     -0.157605
    128 C40         9.5610   -2.6220    0.9200 c         1 MOL      0.626022
    129 O19        10.4810   -2.7470    1.7290 o         1 MOL     -0.545125
    130 C41         8.2550   -4.7430    0.4970 c3        1 MOL      0.404636
    131 C42         9.1920   -5.7140    1.1890 c3        1 MOL     -0.411032
    132 O20         8.7640   -4.6810   -0.8360 oh        1 MOL     -0.651365
    133 H60         7.1830   -1.7830    0.2320 hn        1 MOL      0.276706
    134 H61         8.2340   -3.5600    2.3130 h1        1 MOL      0.150689
    135 H62         7.2900   -5.2600    0.4640 h1        1 MOL      0.038460
    136 H63         9.3320   -5.4580   -0.9220 ho        1 MOL      0.400051
    137 H64         9.3780   -6.5850    0.5700 hc        1 MOL      0.102241
    138 H65        10.1790   -5.2400    1.2790 hc        1 MOL      0.102241
    139 H66         8.8820   -5.9740    2.1920 hc        1 MOL      0.102241
    140 N12         9.6320   -1.7810   -0.1440 n         1 MOL     -0.488386
    141 C43        10.6760   -0.8660   -0.6060 c3        1 MOL     -0.061880
    142 C44        10.1640    0.3250   -1.3600 c         1 MOL      0.687304
    143 O21         9.4430    0.1390   -2.3500 o         1 MOL     -0.531409
    144 C45        11.7390   -1.6370   -1.3910 c3        1 MOL     -0.267102
    145 C46        12.8480   -0.8090   -2.1090 c3        1 MOL      0.009786
    146 C47        13.9610   -0.3940   -1.1350 c3        1 MOL     -0.061335
    147 C48        15.0950    0.3600   -1.8790 c3        1 MOL     -0.110143
    148 N13        15.9200   -0.5270   -2.8120 n4        1 MOL     -0.122797
    149 H67         8.7960   -1.7600   -0.7040 hn        1 MOL      0.323423
    150 H68        11.0720   -0.4380    0.3190 h1        1 MOL      0.121082
    151 H69        11.2910   -2.2160   -2.2020 hc        1 MOL      0.118329
    152 H70        12.2060   -2.3940   -0.7550 hc        1 MOL      0.118329
    153 H71        12.4080    0.0930   -2.5220 hc        1 MOL      0.039312
    154 H72        13.2940   -1.3710   -2.9350 hc        1 MOL      0.039312
    155 H73        14.3420   -1.2740   -0.6330 hc        1 MOL      0.058688
    156 H74        13.6360    0.2760   -0.3320 hc        1 MOL      0.058688
    157 H75        15.8140    0.6600   -1.1140 hx        1 MOL      0.125039
    158 H76        14.8610    1.2240   -2.4880 hx        1 MOL      0.125039
    159 H77        16.8980   -0.2630   -2.9040 hn        1 MOL      0.215075
    160 H78        15.9720   -1.4610   -2.4320 hn        1 MOL      0.215075
    161 H79        15.6200   -0.5790   -3.7730 hn        1 MOL      0.215075
    162 N14        10.4280    1.5320   -0.8610 n         1 MOL     -0.718553
    163 C49        10.0920    2.8000   -1.5260 c3        1 MOL      0.276915
    164 C50         8.6860    3.2370   -1.1520 c         1 MOL      0.395797
    165 O22         7.9200    3.6700   -2.0240 o         1 MOL     -0.530942
    166 C51        11.2200    3.8970   -1.2470 c3        1 MOL      0.014771
    167 C52        10.8630    5.1610   -1.9730 c3        1 MOL     -0.162359
    168 C53        11.9650    6.2180   -1.9060 c         1 MOL      0.670423
    169 O23        12.3760    6.5780   -0.7830 o         1 MOL     -0.668131
    170 O24        12.5220    6.5590   -2.9730 o         1 MOL     -0.668131
    171 H80        11.0870    1.5530   -0.0970 hn        1 MOL      0.321561
    172 H81         9.9580    2.5790   -2.5910 h1        1 MOL      0.054012
    173 H82        12.1550    3.5620   -1.7100 hc        1 MOL      0.007517
    174 H83        11.3620    4.0280   -0.1740 hc        1 MOL      0.007517
    175 H84         9.9330    5.5260   -1.5320 hc        1 MOL      0.030899
    176 H85        10.7260    4.8780   -3.0140 hc        1 MOL      0.030899
    177 N15         8.1850    3.1890    0.1120 n         1 MOL     -0.280973
    178 C54         8.8760    3.1360    1.4210 c3        1 MOL     -0.167469
    179 H86         9.4160    4.0690    1.5840 h1        1 MOL      0.086995
    180 H87         8.1430    2.9980    2.2140 h1        1 MOL      0.086995
    181 H88         9.5800    2.3030    1.4270 h1        1 MOL      0.086995
    182 H89         7.1750    3.2860    0.0880 hn        1 MOL      0.270202
    183 Ca1        -5.4430    4.1360    0.0010 Ca        1 MOL      1.747566
    184 O25        -6.7180    6.6110    0.1740 oh        1 MOL     -0.840410
    185 H90        -7.4250    6.6200    0.8130 ho        1 MOL      0.419489
    186 H91        -6.5990    7.5330   -0.0810 ho        1 MOL      0.419489
    187 O26        -5.3270    5.4090   -2.4580 oh        1 MOL     -0.840410
    188 H92        -6.0300    5.4260   -3.1040 ho        1 MOL      0.419489
    189 H93        -4.7060    6.0680   -2.7600 ho        1 MOL      0.419489
    190 O27        -3.9160    4.4710    2.3240 oh        1 MOL     -0.840410
    191 H94        -3.0150    4.5110    2.0280 ho        1 MOL      0.419489
    192 H95        -3.9880    5.1580    2.9810 ho        1 MOL      0.419489
    193 O28        -3.2910    5.7520   -0.2510 oh        1 MOL     -0.840410
    194 H96        -2.5670    5.4380    0.2800 ho        1 MOL      0.419489
    195 H97        -2.8810    6.2350   -0.9590 ho        1 MOL      0.419489
    196 O29        -3.1030    2.7620   -0.3910 oh        1 MOL     -0.840410
    197 H98        -2.9940    2.1400   -1.1050 ho        1 MOL      0.419489
    198 H99        -2.4400    2.5020    0.2480 ho        1 MOL      0.419489
@<TRIPOS>BOND
     1    1    2 1   
     2    1    4 1   
     3    1    5 1   
     4    1    6 1   
     5    2    3 2   
     6    2    7 1   
     7    7    8 1   
     8    7   15 1   
     9    8    9 1   
    10    8   11 1   
    11    8   16 1   
    12    9   10 2   
    13    9   19 1   
    14   11   12 1   
    15   11   17 1   
    16   11   18 1   
    17   12   13 1   
    18   12   14 1   
    19   19   20 1   
    20   19   28 1   
    21   20   21 1   
    22   20   23 1   
    23   20   29 1   
    24   21   22 2   
    25   21   41 1   
    26   23   24 1   
    27   23   30 1   
    28   23   31 1   
    29   24   25 1   
    30   24   32 1   
    31   24   33 1   
    32   25   26 1   
    33   25   34 1   
    34   25   35 1   
    35   26   27 1   
    36   26   36 1   
    37   26   37 1   
    38   27   38 1   
    39   27   39 1   
    40   27   40 1   
    41   41   42 1   
    42   41   49 1   
    43   42   43 1   
    44   42   45 1   
    45   42   50 1   
    46   43   44 2   
    47   43   53 1   
    48   45   46 1   
    49   45   51 1   
    50   45   52 1   
    51   46   47 1   
    52   46   48 1   
    53   53   54 1   
    54   53   57 1   
    55   54   55 1   
    56   54   58 1   
    57   54   59 1   
    58   55   56 2   
    59   55   60 1   
    60   60   61 1   
    61   60   68 1   
    62   61   62 1   
    63   61   64 1   
    64   61   69 1   
    65   62   63 2   
    66   62   72 1   
    67   64   65 1   
    68   64   70 1   
    69   64   71 1   
    70   65   66 1   
    71   65   67 1   
    72   72   73 1   
    73   72   76 1   
    74   73   74 1   
    75   73   77 1   
    76   73   78 1   
    77   74   75 2   
    78   74   79 1   
    79   79   80 1   
    80   79   86 1   
    81   80   81 1   
    82   80   83 1   
    83   80   87 1   
    84   81   82 2   
    85   81   93 1   
    86   83   84 1   
    87   83   85 1   
    88   83   88 1   
    89   84   90 1   
    90   84   91 1   
    91   84   92 1   
    92   85   89 1   
    93   93   94 1   
    94   93  101 1   
    95   94   95 1   
    96   94   97 1   
    97   94  102 1   
    98   95   96 2   
    99   95  112 1   
   100   97   98 1   
   101   97   99 1   
   102   97  103 1   
   103   98  100 1   
   104   98  104 1   
   105   98  105 1   
   106   99  106 1   
   107   99  107 1   
   108   99  108 1   
   109  100  109 1   
   110  100  110 1   
   111  100  111 1   
   112  112  113 1   
   113  112  119 1   
   114  113  114 1   
   115  113  116 1   
   116  113  120 1   
   117  114  115 2   
   118  114  126 1   
   119  116  117 1   
   120  116  118 1   
   121  116  121 1   
   122  117  123 1   
   123  117  124 1   
   124  117  125 1   
   125  118  122 1   
   126  126  127 1   
   127  126  133 1   
   128  127  128 1   
   129  127  130 1   
   130  127  134 1   
   131  128  129 2   
   132  128  140 1   
   133  130  131 1   
   134  130  132 1   
   135  130  135 1   
   136  131  137 1   
   137  131  138 1   
   138  131  139 1   
   139  132  136 1   
   140  140  141 1   
   141  140  149 1   
   142  141  142 1   
   143  141  144 1   
   144  141  150 1   
   145  142  143 2   
   146  142  162 1   
   147  144  145 1   
   148  144  151 1   
   149  144  152 1   
   150  145  146 1   
   151  145  153 1   
   152  145  154 1   
   153  146  147 1   
   154  146  155 1   
   155  146  156 1   
   156  147  148 1   
   157  147  157 1   
   158  147  158 1   
   159  148  159 1   
   160  148  160 1   
   161  148  161 1   
   162  162  163 1   
   163  162  171 1   
   164  163  164 1   
   165  163  166 1   
   166  163  172 1   
   167  164  165 2   
   168  164  177 1   
   169  166  167 1   
   170  166  173 1   
   171  166  174 1   
   172  167  168 1   
   173  167  175 1   
   174  167  176 1   
   175  168  169 1   
   176  168  170 1   
   177  177  178 1   
   178  177  182 1   
   179  178  179 1   
   180  178  180 1   
   181  178  181 1   
   182  184  185 1   
   183  184  186 1   
   184  187  188 1   
   185  187  189 1   
   186  190  191 1   
   187  190  192 1   
   188  193  194 1   
   189  193  195 1   
   190  196  197 1   
   191  196  198 1   
@<TRIPOS>SUBSTRUCTURE
     1 MOL         1 TEMP              0 ****  ****    0 ROOT
