@<TRIPOS>MOLECULE
MOL
  181   177     1     0     0
SMALL
resp


@<TRIPOS>ATOM
      1 C1         -8.5690   -6.7710   -2.4640 c3        1 MOL     -0.266182
      2 C2         -7.3360   -6.0030   -1.8860 c         1 MOL      0.599588
      3 O1         -6.4810   -6.6860   -1.3370 o         1 MOL     -0.579397
      4 H1         -8.9040   -7.5150   -1.7410 hc        1 MOL      0.065346
      5 H2         -9.3770   -6.0660   -2.6610 hc        1 MOL      0.065346
      6 H3         -8.2860   -7.2690   -3.3910 hc        1 MOL      0.065346
      7 N1         -7.1960   -4.6770   -1.8470 n         1 MOL     -0.492265
      8 C3         -8.0370   -3.6410   -2.4110 c3        1 MOL      0.162130
      9 C4         -8.9050   -2.8680   -1.3450 c         1 MOL      0.417707
     10 O2         -9.7720   -2.1040   -1.7150 o         1 MOL     -0.500152
     11 C5         -7.3750   -2.7090   -3.3190 c3        1 MOL     -0.280825
     12 C6         -6.1950   -1.9180   -2.7130 c         1 MOL      0.748349
     13 O3         -5.4560   -2.3030   -1.7680 o         1 MOL     -0.728289
     14 O4         -5.9370   -0.8340   -3.3670 o         1 MOL     -0.728289
     15 H4         -6.3710   -4.4340   -1.3190 hn        1 MOL      0.310487
     16 H5         -8.7270   -4.1270   -3.1020 h1        1 MOL      0.066170
     17 H6         -8.1000   -2.0030   -3.7170 hc        1 MOL      0.077889
     18 H7         -7.0450   -3.2660   -4.2050 hc        1 MOL      0.077889
     19 N2         -8.6110   -3.1310   -0.0610 n         1 MOL     -0.444385
     20 C7         -9.4260   -2.5940    0.9700 c3        1 MOL      0.201861
     21 C8         -9.2010   -1.1030    1.2710 c         1 MOL      0.362415
     22 O5        -10.1060   -0.3340    1.7340 o         1 MOL     -0.569565
     23 C9         -9.4090   -3.4950    2.2640 c3        1 MOL     -0.372528
     24 H8         -7.6720   -3.4540    0.1310 hn        1 MOL      0.301604
     25 H9        -10.4690   -2.4820    0.6470 h1        1 MOL      0.073205
     26 H10        -9.6070   -4.4570    1.7990 hc        1 MOL      0.104189
     27 H11        -8.4070   -3.5710    2.6800 hc        1 MOL      0.104189
     28 H12       -10.1360   -3.3570    3.0680 hc        1 MOL      0.104189
     29 N3         -7.9730   -0.6240    1.0620 n         1 MOL     -0.170387
     30 C10        -7.5380    0.7890    1.2470 c3        1 MOL      0.147167
     31 C11        -7.1760    1.4020   -0.1110 c         1 MOL      0.344094
     32 O6         -6.9040    0.6730   -1.1170 o         1 MOL     -0.482415
     33 C12        -6.3760    0.8350    2.2880 c3        1 MOL     -0.271954
     34 C13        -5.1650   -0.0470    2.0300 c         1 MOL      0.709841
     35 O7         -4.9530   -0.5050    0.9030 o         1 MOL     -0.664918
     36 O8         -4.4680   -0.4990    2.9560 o         1 MOL     -0.664918
     37 H13        -7.3510   -1.2580    0.5880 hn        1 MOL      0.197994
     38 H14        -8.3950    1.3010    1.6690 h1        1 MOL      0.041578
     39 H15        -6.7670    0.5140    3.2510 hc        1 MOL      0.066917
     40 H16        -6.0580    1.8500    2.5290 hc        1 MOL      0.066917
     41 N4         -7.1180    2.7170   -0.1160 n         1 MOL     -0.215504
     42 C14        -6.6670    3.5930   -1.2460 c3        1 MOL     -0.239773
     43 C15        -5.1750    3.6470   -1.4410 c         1 MOL      0.648538
     44 O9         -4.5310    2.6180   -1.3720 o         1 MOL     -0.615026
     45 H17        -7.4700    3.2220    0.6830 hn        1 MOL      0.252138
     46 H18        -6.9040    4.6470   -1.1450 h1        1 MOL      0.107798
     47 H19        -7.0920    3.2030   -2.1720 h1        1 MOL      0.107798
     48 N5         -4.5420    4.8330   -1.4780 n         1 MOL     -0.551151
     49 C16        -3.0400    5.0570   -1.3040 c3        1 MOL      0.106126
     50 C17        -2.6480    4.5640    0.1230 c         1 MOL      0.630080
     51 O10        -3.3490    4.7730    1.0810 o         1 MOL     -0.530171
     52 C18        -2.6940    6.5130   -1.5420 c3        1 MOL     -0.375274
     53 C19        -2.9000    6.9910   -2.9540 c         1 MOL      0.729003
     54 N6         -3.5240    8.1950   -3.1400 n         1 MOL     -0.855938
     55 O11        -2.6570    6.2680   -3.9380 o         1 MOL     -0.552250
     56 H20        -5.1390    5.6580   -1.4380 hn        1 MOL      0.321947
     57 H21        -2.5030    4.3900   -1.9840 h1        1 MOL      0.058721
     58 H22        -1.6470    6.6500   -1.2640 hc        1 MOL      0.111114
     59 H23        -3.2840    7.1540   -0.9000 hc        1 MOL      0.111114
     60 H24        -3.8130    8.7110   -2.3280 hn        1 MOL      0.383996
     61 H25        -3.5710    8.5570   -4.0770 hn        1 MOL      0.383996
     62 N7         -1.5530    3.7940    0.1570 n         1 MOL     -0.507791
     63 C20        -1.2030    2.9860    1.3500 c3        1 MOL      0.021049
     64 C21        -2.2570    1.9200    1.5590 c         1 MOL      0.236643
     65 O12        -3.0360    1.4430    0.6740 o         1 MOL     -0.430635
     66 H26        -1.0360    3.7030   -0.7150 hn        1 MOL      0.325125
     67 H27        -1.1670    3.5750    2.2630 h1        1 MOL      0.114703
     68 H28        -0.2340    2.5060    1.1960 h1        1 MOL      0.114703
     69 N8         -2.2910    1.3230    2.7730 n         1 MOL     -0.037929
     70 C22        -1.4360    1.4960    3.9560 c3        1 MOL     -0.321576
     71 C23        -0.0530    0.7810    3.8780 c         1 MOL      0.565218
     72 O13         0.8370    1.1920    4.5670 o         1 MOL     -0.550048
     73 C24        -2.1330    0.9900    5.1710 c3        1 MOL      0.402268
     74 C25        -3.3990    1.8510    5.4340 c3        1 MOL     -0.384627
     75 O14        -2.5460   -0.3600    4.9830 oh        1 MOL     -0.641737
     76 H29        -3.1310    0.7750    2.8240 hn        1 MOL      0.181557
     77 H30        -1.2930    2.5730    4.1220 h1        1 MOL      0.114237
     78 H31        -1.4230    1.0500    5.9910 h1        1 MOL      0.052410
     79 H32        -3.3030   -0.3490    4.3900 ho        1 MOL      0.416963
     80 H33        -4.1330    1.6700    4.6420 hc        1 MOL      0.078405
     81 H34        -3.8150    1.6880    6.4310 hc        1 MOL      0.078405
     82 H35        -3.0630    2.8830    5.3570 hc        1 MOL      0.078405
     83 N9         -0.0340   -0.2100    2.9980 n         1 MOL     -0.308970
     84 C26         1.2080   -0.7780    2.4220 c3        1 MOL      0.030985
     85 C27         1.3700   -0.2700    0.9430 c         1 MOL      0.317971
     86 O15         0.5190   -0.4600    0.0560 o         1 MOL     -0.490292
     87 C28         1.3180   -2.3120    2.6660 c3        1 MOL      0.297300
     88 C29         0.7270   -2.9110    3.9880 c3        1 MOL      0.141522
     89 C30         2.7440   -2.6550    2.4110 c3        1 MOL     -0.321770
     90 C31         1.1940   -2.2310    5.2970 c3        1 MOL     -0.331085
     91 H36        -0.9530   -0.5630    2.7720 hn        1 MOL      0.169194
     92 H37         2.0020   -0.3100    3.0030 h1        1 MOL      0.069046
     93 H38         0.6370   -2.8200    1.9790 hc        1 MOL     -0.085750
     94 H39         0.9010   -3.9880    4.0270 hc        1 MOL     -0.023297
     95 H40        -0.3650   -2.9320    3.9610 hc        1 MOL     -0.023297
     96 H41         3.4330   -2.4600    3.2390 hc        1 MOL      0.076260
     97 H42         2.7080   -3.7030    2.1070 hc        1 MOL      0.076260
     98 H43         3.1110   -2.1130    1.5420 hc        1 MOL      0.076260
     99 H44         2.2770   -2.2760    5.3990 hc        1 MOL      0.075246
    100 H45         0.9350   -1.1730    5.3470 hc        1 MOL      0.075246
    101 H46         0.6610   -2.7410    6.1140 hc        1 MOL      0.075246
    102 N10         2.5080    0.2390    0.4630 n         1 MOL     -0.386674
    103 C32         3.6520    0.7300    1.2030 c3        1 MOL      0.523124
    104 C33         4.8970    0.5510    0.2690 c         1 MOL      0.295461
    105 O16         4.8480    0.3660   -0.9560 o         1 MOL     -0.493676
    106 C34         3.4540    2.1340    1.8060 c3        1 MOL     -0.103941
    107 C35         2.9670    3.2400    0.9160 c         1 MOL      0.708765
    108 O17         2.6870    3.0140   -0.2770 o         1 MOL     -0.735958
    109 O18         2.7620    4.3950    1.3770 o         1 MOL     -0.735958
    110 H47         2.4570    0.5040   -0.5010 hn        1 MOL      0.269591
    111 H48         3.9510    0.0800    2.0250 h1        1 MOL     -0.066204
    112 H49         4.4430    2.4110    2.1450 hc        1 MOL     -0.042115
    113 H50         2.7310    2.0280    2.6140 hc        1 MOL     -0.042115
    114 N11         6.1100    0.5980    0.9050 n         1 MOL     -0.477465
    115 C36         7.3640    0.7620    0.2540 c3        1 MOL      0.493887
    116 C37         8.4550   -0.0250    0.9480 c         1 MOL      0.092604
    117 O19         8.4960   -0.1860    2.1900 o         1 MOL     -0.482113
    118 C38         7.6080    2.2690    0.2390 c3        1 MOL     -0.207525
    119 C39         8.9090    2.8100   -0.3690 ca        1 MOL      0.074337
    120 C40        10.0840    2.9280    0.3700 ca        1 MOL     -0.161500
    121 C41         8.9160    3.0760   -1.7590 ca        1 MOL     -0.161500
    122 C42        11.2740    3.4350   -0.2670 ca        1 MOL     -0.114175
    123 C43        10.0990    3.5200   -2.3830 ca        1 MOL     -0.114175
    124 C44        11.2930    3.7300   -1.6490 ca        1 MOL     -0.130516
    125 H51         6.0270    0.6610    1.9100 hn        1 MOL      0.279175
    126 H52         7.3860    0.3180   -0.7330 h1        1 MOL     -0.006247
    127 H53         7.4800    2.6340    1.2560 hc        1 MOL      0.079762
    128 H54         6.7510    2.7460   -0.2330 hc        1 MOL      0.079762
    129 H55        10.0220    2.7070    1.4200 ha        1 MOL      0.132837
    130 H56         8.0330    2.9270   -2.3540 ha        1 MOL      0.132837
    131 H57        12.2000    3.5910    0.2670 ha        1 MOL      0.099988
    132 H58        10.1600    3.6790   -3.4500 ha        1 MOL      0.099988
    133 H59        12.1920    4.1900   -2.0470 ha        1 MOL      0.100582
    134 N12         9.4390   -0.6160    0.2230 n         1 MOL      0.212047
    135 C45         9.6730   -0.6000   -1.2390 c3        1 MOL     -0.000835
    136 C46         8.6030   -1.4760   -1.9220 c         1 MOL      0.335469
    137 O20         7.9230   -0.9160   -2.8080 o         1 MOL     -0.516586
    138 C47        11.1200   -1.1440   -1.5090 c3        1 MOL      0.030915
    139 C48        11.8120   -1.0940   -0.1090 c3        1 MOL     -0.011051
    140 C49        10.6190   -1.0270    0.9280 c3        1 MOL     -0.126875
    141 H60         9.5280    0.4060   -1.6410 h1        1 MOL      0.033472
    142 H61        11.0840   -2.1950   -1.8030 hc        1 MOL      0.010486
    143 H62        11.6980   -0.6650   -2.3040 hc        1 MOL      0.010486
    144 H63        12.4780   -1.9360    0.0430 hc        1 MOL     -0.004922
    145 H64        12.3040   -0.1230   -0.1420 hc        1 MOL     -0.004922
    146 H65        10.5150   -1.9840    1.4290 h1        1 MOL      0.062145
    147 H66        10.8830   -0.2780    1.6760 h1        1 MOL      0.062145
    148 N13         8.2580   -2.6590   -1.3680 n         1 MOL     -0.382930
    149 C50         7.1360   -3.5140   -1.7230 c3        1 MOL      0.320806
    150 C51         7.4540   -4.4400   -2.9300 c         1 MOL      0.378579
    151 O21         8.1160   -5.3950   -2.6950 o         1 MOL     -0.547692
    152 C52         6.8000   -4.3690   -0.4430 c3        1 MOL     -0.015970
    153 C53         6.1020   -3.5080    0.6150 c3        1 MOL     -0.106933
    154 C54         5.7410   -4.2700    1.9210 c         1 MOL      0.727904
    155 O22         5.3730   -5.4600    1.8910 o         1 MOL     -0.728673
    156 O23         5.9040   -3.7110    3.0420 o         1 MOL     -0.728673
    157 H67         8.7840   -3.0200   -0.5910 hn        1 MOL      0.245985
    158 H68         6.2520   -2.8910   -1.9140 h1        1 MOL      0.060143
    159 H69         7.6980   -4.8160   -0.0050 hc        1 MOL      0.000055
    160 H70         6.0950   -5.1240   -0.7840 hc        1 MOL      0.000055
    161 H71         5.2420   -3.0750    0.1110 hc        1 MOL     -0.036585
    162 H72         6.7960   -2.6980    0.8360 hc        1 MOL     -0.036585
    163 N14         7.0110   -4.1150   -4.1750 n         1 MOL     -0.339883
    164 C55         6.0730   -3.0630   -4.5990 c3        1 MOL     -0.183171
    165 H73         6.6020   -2.1110   -4.6650 h1        1 MOL      0.092654
    166 H74         5.6590   -3.3160   -5.5750 h1        1 MOL      0.092654
    167 H75         5.2660   -2.9800   -3.8700 h1        1 MOL      0.092654
    168 H76         7.4720   -4.6570   -4.8820 hn        1 MOL      0.258647
    169 Ca1        -4.2770    0.0870   -1.4920 Ca        1 MOL      1.655872
    170 O24        -1.9090    1.4700   -2.2160 oh        1 MOL     -0.778229
    171 H77        -1.8230    2.3180   -2.6540 ho        1 MOL      0.389518
    172 H78        -1.0840    1.0160   -2.4140 ho        1 MOL      0.389518
    173 O25        -2.1710   -1.2200   -0.5540 oh        1 MOL     -0.778229
    174 H79        -2.2990   -1.1320    0.3960 ho        1 MOL      0.389518
    175 H80        -1.2200   -1.2590   -0.6560 ho        1 MOL      0.389518
    176 O26        -3.0440   -1.5170   -3.4280 oh        1 MOL     -0.778229
    177 H81        -2.2250   -1.9970   -3.5600 ho        1 MOL      0.389518
    178 H82        -3.3770   -1.3550   -4.3150 ho        1 MOL      0.389518
    179 O27        -4.0660    1.5100   -4.0760 oh        1 MOL     -0.778229
    180 H83        -3.5650    2.3210   -4.1440 ho        1 MOL      0.389518
    181 H84        -4.8300    1.6500   -4.6320 ho        1 MOL      0.389518
@<TRIPOS>BOND
     1    1    2 1   
     2    1    4 1   
     3    1    5 1   
     4    1    6 1   
     5    2    3 2   
     6    2    7 1   
     7    7    8 1   
     8    7   15 1   
     9    8    9 1   
    10    8   11 1   
    11    8   16 1   
    12    9   10 2   
    13    9   19 1   
    14   11   12 1   
    15   11   17 1   
    16   11   18 1   
    17   12   13 1   
    18   12   14 1   
    19   19   20 1   
    20   19   24 1   
    21   20   21 1   
    22   20   23 1   
    23   20   25 1   
    24   21   22 2   
    25   21   29 1   
    26   23   26 1   
    27   23   27 1   
    28   23   28 1   
    29   29   30 1   
    30   29   37 1   
    31   30   31 1   
    32   30   33 1   
    33   30   38 1   
    34   31   32 2   
    35   31   41 1   
    36   33   34 1   
    37   33   39 1   
    38   33   40 1   
    39   34   35 1   
    40   34   36 1   
    41   41   42 1   
    42   41   45 1   
    43   42   43 1   
    44   42   46 1   
    45   42   47 1   
    46   43   44 2   
    47   43   48 1   
    48   48   49 1   
    49   48   56 1   
    50   49   50 1   
    51   49   52 1   
    52   49   57 1   
    53   50   51 2   
    54   50   62 1   
    55   52   53 1   
    56   52   58 1   
    57   52   59 1   
    58   53   54 1   
    59   53   55 2   
    60   54   60 1   
    61   54   61 1   
    62   62   63 1   
    63   62   66 1   
    64   63   64 1   
    65   63   67 1   
    66   63   68 1   
    67   64   65 2   
    68   64   69 1   
    69   69   70 1   
    70   69   76 1   
    71   70   71 1   
    72   70   73 1   
    73   70   77 1   
    74   71   72 2   
    75   71   83 1   
    76   73   74 1   
    77   73   75 1   
    78   73   78 1   
    79   74   80 1   
    80   74   81 1   
    81   74   82 1   
    82   75   79 1   
    83   83   84 1   
    84   83   91 1   
    85   84   85 1   
    86   84   87 1   
    87   84   92 1   
    88   85   86 2   
    89   85  102 1   
    90   87   88 1   
    91   87   89 1   
    92   87   93 1   
    93   88   90 1   
    94   88   94 1   
    95   88   95 1   
    96   89   96 1   
    97   89   97 1   
    98   89   98 1   
    99   90   99 1   
   100   90  100 1   
   101   90  101 1   
   102  102  103 1   
   103  102  110 1   
   104  103  104 1   
   105  103  106 1   
   106  103  111 1   
   107  104  105 2   
   108  104  114 1   
   109  106  107 1   
   110  106  112 1   
   111  106  113 1   
   112  107  108 1   
   113  107  109 1   
   114  114  115 1   
   115  114  125 1   
   116  115  116 1   
   117  115  118 1   
   118  115  126 1   
   119  116  117 2   
   120  116  134 1   
   121  118  119 1   
   122  118  127 1   
   123  118  128 1   
   124  119  120 ar  
   125  119  121 ar  
   126  120  122 ar  
   127  120  129 1   
   128  121  123 ar  
   129  121  130 1   
   130  122  124 ar  
   131  122  131 1   
   132  123  124 ar  
   133  123  132 1   
   134  124  133 1   
   135  134  135 1   
   136  134  140 1   
   137  135  136 1   
   138  135  138 1   
   139  135  141 1   
   140  136  137 2   
   141  136  148 1   
   142  138  139 1   
   143  138  142 1   
   144  138  143 1   
   145  139  140 1   
   146  139  144 1   
   147  139  145 1   
   148  140  146 1   
   149  140  147 1   
   150  148  149 1   
   151  148  157 1   
   152  149  150 1   
   153  149  152 1   
   154  149  158 1   
   155  150  151 2   
   156  150  163 1   
   157  152  153 1   
   158  152  159 1   
   159  152  160 1   
   160  153  154 1   
   161  153  161 1   
   162  153  162 1   
   163  154  155 1   
   164  154  156 1   
   165  163  164 1   
   166  163  168 1   
   167  164  165 1   
   168  164  166 1   
   169  164  167 1   
   170  170  171 1   
   171  170  172 1   
   172  173  174 1   
   173  173  175 1   
   174  176  177 1   
   175  176  178 1   
   176  179  180 1   
   177  179  181 1   
@<TRIPOS>SUBSTRUCTURE
     1 MOL         1 TEMP              0 ****  ****    0 ROOT
