@<TRIPOS>MOLECULE
MOL
  181   177     1     0     0
SMALL
resp


@<TRIPOS>ATOM
      1 C1          1.8280   -1.2180    5.0460 c3        1 MOL     -0.388534
      2 C2          2.7120   -0.2220    4.2860 c         1 MOL      0.651805
      3 O1          2.2330    0.3930    3.3580 o         1 MOL     -0.576086
      4 H1          2.1000   -2.2350    4.7630 hc        1 MOL      0.096575
      5 H2          1.9750   -1.0890    6.1190 hc        1 MOL      0.096575
      6 H3          0.7820   -1.0390    4.7970 hc        1 MOL      0.096575
      7 N1          4.0660   -0.2960    4.4910 n         1 MOL     -0.494679
      8 C3          5.0130    0.5040    3.7200 c3        1 MOL     -0.027321
      9 C4          5.4720   -0.3070    2.4930 c         1 MOL      0.577150
     10 O2          6.2550    0.1870    1.6600 o         1 MOL     -0.503519
     11 C5          6.1930    1.0450    4.5620 c3        1 MOL     -0.110611
     12 C6          6.8350   -0.0390    5.3780 c         1 MOL      0.765951
     13 O3          7.0750    0.2240    6.5550 o         1 MOL     -0.744200
     14 O4          7.1260   -1.1420    4.8550 o         1 MOL     -0.744200
     15 H4          4.3900   -0.7980    5.3000 hn        1 MOL      0.294167
     16 H5          4.5250    1.3340    3.2140 h1        1 MOL      0.100800
     17 H6          5.9440    1.8360    5.2720 hc        1 MOL      0.004071
     18 H7          6.8770    1.4410    3.8050 hc        1 MOL      0.004071
     19 N2          5.0110   -1.5870    2.3270 n         1 MOL     -0.358976
     20 C7          5.2940   -2.4660    1.1300 c3        1 MOL      0.018716
     21 C8          4.9910   -1.8620   -0.2890 c         1 MOL      0.569281
     22 O5          3.8800   -1.9830   -0.7880 o         1 MOL     -0.710393
     23 C9          6.6650   -3.0370    1.0550 c3        1 MOL     -0.467011
     24 H8          4.4390   -1.9400    3.0780 hn        1 MOL      0.253676
     25 H9          4.6740   -3.3650    1.1540 h1        1 MOL      0.162819
     26 H10         6.8310   -3.5510    0.1120 hc        1 MOL      0.132631
     27 H11         7.3600   -2.2030    1.1870 hc        1 MOL      0.132631
     28 H12         6.8220   -3.6850    1.9190 hc        1 MOL      0.132631
     29 N3          5.8670   -1.0800   -0.8860 n         1 MOL     -0.182690
     30 C10         5.8070   -0.4570   -2.2040 c3        1 MOL     -0.021058
     31 C11         5.4540    1.0780   -2.0430 c         1 MOL      0.426523
     32 O6          5.4340    1.8020   -3.0420 o         1 MOL     -0.523304
     33 C12         6.9850   -0.6950   -3.0650 c3        1 MOL     -0.239859
     34 C13         8.3680   -0.3840   -2.5400 c         1 MOL      0.778861
     35 O7          8.5700   -0.2670   -1.2950 o         1 MOL     -0.737799
     36 O8          9.3300   -0.3870   -3.3400 o         1 MOL     -0.737799
     37 H13         6.7450   -0.9690   -0.4020 hn        1 MOL      0.212385
     38 H14         5.0000   -0.8540   -2.8240 h1        1 MOL      0.123990
     39 H15         6.9390   -0.2960   -4.0780 hc        1 MOL      0.022770
     40 H16         7.0430   -1.7860   -3.1650 hc        1 MOL      0.022770
     41 N4          5.3020    1.5920   -0.7720 n         1 MOL     -0.085327
     42 C14         5.1220    3.0320   -0.4160 c3        1 MOL     -0.096195
     43 C15         4.0030    3.7460   -1.1540 c         1 MOL      0.623342
     44 O9          4.1480    4.9070   -1.4460 o         1 MOL     -0.570152
     45 H17         5.3520    0.9600    0.0110 hn        1 MOL      0.085420
     46 H18         6.0070    3.6040   -0.6740 h1        1 MOL      0.069159
     47 H19         4.9750    3.0340    0.6660 h1        1 MOL      0.069159
     48 N5          2.8920    3.0940   -1.4030 n         1 MOL     -0.370228
     49 C16         1.7670    3.5070   -2.2180 c3        1 MOL     -0.185735
     50 C17         1.0700    4.7610   -1.5730 c         1 MOL      0.626233
     51 O10         1.1250    5.0060   -0.3930 o         1 MOL     -0.485234
     52 C18         0.9580    2.1540   -2.3830 c3        1 MOL     -0.335042
     53 C19         1.7050    0.9940   -3.0110 c         1 MOL      0.590031
     54 N6          2.1100    1.2530   -4.2340 n         1 MOL     -0.747143
     55 O11         2.0860   -0.0250   -2.4670 o         1 MOL     -0.493726
     56 H20         2.8260    2.1130   -1.1700 hn        1 MOL      0.224977
     57 H21         2.1800    3.6870   -3.2060 h1        1 MOL      0.099970
     58 H22         0.1030    2.4160   -3.0010 hc        1 MOL      0.149455
     59 H23         0.5780    1.8290   -1.4040 hc        1 MOL      0.149455
     60 H24         1.8800    2.1470   -4.6420 hn        1 MOL      0.349931
     61 H25         2.6810    0.6200   -4.7850 hn        1 MOL      0.349931
     62 N7          0.6320    5.6430   -2.4290 n         1 MOL     -0.340501
     63 C20         0.0180    6.9740   -2.1750 c3        1 MOL     -0.142350
     64 C21        -1.4220    6.7590   -1.6950 c         1 MOL      0.636272
     65 O12        -2.1070    6.0900   -2.3860 o         1 MOL     -0.529014
     66 H26         0.6910    5.2960   -3.3790 hn        1 MOL      0.253960
     67 H27         0.0810    7.6990   -2.9820 h1        1 MOL      0.085291
     68 H28         0.4550    7.3380   -1.2520 h1        1 MOL      0.085291
     69 N8         -1.7980    7.2090   -0.4850 n         1 MOL     -0.533415
     70 C22        -3.2080    7.1310   -0.0990 c3        1 MOL     -0.342001
     71 C23        -3.7920    5.8050    0.4510 c         1 MOL      0.446271
     72 O13        -4.9630    5.7190    0.8630 o         1 MOL     -0.523583
     73 C24        -3.6220    8.2960    0.8470 c3        1 MOL      0.491976
     74 C25        -3.0430    8.2010    2.2490 c3        1 MOL     -0.329337
     75 O14        -3.1950    9.4980    0.2670 oh        1 MOL     -0.627549
     76 H29        -1.1110    7.6390    0.1150 hn        1 MOL      0.347997
     77 H30        -3.6610    7.2530   -1.0820 h1        1 MOL      0.203668
     78 H31        -4.7060    8.3600    0.8730 h1        1 MOL      0.032402
     79 H32        -2.2400    9.4960    0.2860 ho        1 MOL      0.360794
     80 H33        -3.6670    7.6450    2.9580 hc        1 MOL      0.081012
     81 H34        -2.0680    7.7160    2.1750 hc        1 MOL      0.081012
     82 H35        -3.0160    9.1720    2.7430 hc        1 MOL      0.081012
     83 N9         -2.9260    4.7370    0.4240 n         1 MOL     -0.081301
     84 C26        -3.3480    3.4040    0.9390 c3        1 MOL     -0.268124
     85 C27        -2.6510    2.2370    0.0710 c         1 MOL      0.443844
     86 O15        -2.0080    2.5120   -0.9570 o         1 MOL     -0.457311
     87 C28        -2.9360    3.2200    2.4060 c3        1 MOL      0.114595
     88 C29        -1.3980    3.5040    2.5670 c3        1 MOL     -0.107123
     89 C30        -3.6540    4.1470    3.3780 c3        1 MOL     -0.511175
     90 C31        -0.6580    2.3810    3.3230 c3        1 MOL      0.160858
     91 H36        -2.0490    4.7980   -0.0670 hn        1 MOL      0.165081
     92 H37        -4.4230    3.2860    0.8110 h1        1 MOL      0.172666
     93 H38        -3.0620    2.1780    2.6790 hc        1 MOL      0.024430
     94 H39        -1.1860    4.4880    3.0070 hc        1 MOL      0.045204
     95 H40        -0.9130    3.6400    1.6060 hc        1 MOL      0.045204
     96 H41        -3.2640    5.1640    3.2810 hc        1 MOL      0.134860
     97 H42        -4.7030    4.1420    3.0950 hc        1 MOL      0.134860
     98 H43        -3.4380    3.9820    4.4330 hc        1 MOL      0.134860
     99 H44        -1.0100    2.2970    4.3500 hc        1 MOL     -0.037753
    100 H45        -0.8060    1.3980    2.8780 hc        1 MOL     -0.037753
    101 H46         0.3940    2.6670    3.4120 hc        1 MOL     -0.037753
    102 N10        -2.8990    1.0160    0.4160 n         1 MOL     -0.458127
    103 C32        -2.2880   -0.0980   -0.2210 c3        1 MOL     -0.051005
    104 C33        -3.2310   -1.2380   -0.3810 c         1 MOL      0.635669
    105 O16        -3.0150   -2.3430    0.0740 o         1 MOL     -0.600101
    106 C34        -0.9330   -0.3990    0.4560 c3        1 MOL     -0.030192
    107 C35        -0.0320   -1.3120   -0.3660 c         1 MOL      0.432068
    108 O17         0.9620   -1.8360    0.1360 o         1 MOL     -0.624071
    109 O18        -0.3270   -1.5760   -1.5890 o         1 MOL     -0.624071
    110 H47        -3.4830    0.7270    1.1970 hn        1 MOL      0.344347
    111 H48        -2.1600    0.2060   -1.2630 h1        1 MOL      0.006552
    112 H49        -1.0480   -0.8870    1.4250 hc        1 MOL      0.115557
    113 H50        -0.3160    0.5000    0.5990 hc        1 MOL      0.115557
    114 N11        -4.2570   -0.8850   -1.1860 n         1 MOL     -0.633068
    115 C36        -5.2220   -1.8150   -1.7280 c3        1 MOL      0.490244
    116 C37        -5.6090   -2.9650   -0.7380 c         1 MOL      0.311944
    117 O19        -5.9950   -2.6670    0.3760 o         1 MOL     -0.473586
    118 C38        -6.5130   -1.1360   -2.2990 c3        1 MOL     -0.235948
    119 C39        -6.9890    0.0710   -1.4310 ca        1 MOL      0.043671
    120 C40        -7.7880   -0.1210   -0.2900 ca        1 MOL     -0.160864
    121 C41        -6.4480    1.3200   -1.6820 ca        1 MOL     -0.160864
    122 C42        -8.0300    1.0090    0.5910 ca        1 MOL     -0.103219
    123 C43        -6.7300    2.4350   -0.8360 ca        1 MOL     -0.103219
    124 C44        -7.4850    2.2180    0.3270 ca        1 MOL     -0.137221
    125 H51        -4.2230    0.0090   -1.6620 hn        1 MOL      0.372086
    126 H52        -4.7620   -2.2240   -2.6170 h1        1 MOL     -0.049858
    127 H53        -7.3570   -1.8230   -2.3540 hc        1 MOL      0.060450
    128 H54        -6.1790   -0.8330   -3.2890 hc        1 MOL      0.060450
    129 H55        -8.2650   -1.0610   -0.0540 ha        1 MOL      0.125516
    130 H56        -5.7930    1.6150   -2.4900 ha        1 MOL      0.125516
    131 H57        -8.7460    0.8420    1.3820 ha        1 MOL      0.117707
    132 H58        -6.3900    3.4300   -1.0390 ha        1 MOL      0.117707
    133 H59        -7.6200    3.0170    1.0480 ha        1 MOL      0.120519
    134 N12        -5.4090   -4.2320   -1.1180 n         1 MOL     -0.134379
    135 C45        -5.7750   -5.3960   -0.2840 c3        1 MOL      0.035136
    136 C46        -4.9870   -5.5170    1.0250 c         1 MOL      0.313111
    137 O20        -5.5340   -5.8750    2.0400 o         1 MOL     -0.502037
    138 C47        -5.4490   -6.6310   -1.1520 c3        1 MOL      0.100320
    139 C48        -5.8480   -6.0800   -2.5410 c3        1 MOL     -0.122682
    140 C49        -5.3030   -4.6710   -2.5240 c3        1 MOL      0.055299
    141 H60        -6.8390   -5.3900   -0.0470 h1        1 MOL      0.049387
    142 H61        -4.3820   -6.8420   -1.1170 hc        1 MOL      0.000324
    143 H62        -5.9700   -7.5350   -0.8610 hc        1 MOL      0.000324
    144 H63        -5.3610   -6.6110   -3.3650 hc        1 MOL      0.030418
    145 H64        -6.9330   -6.1460   -2.6950 hc        1 MOL      0.030418
    146 H65        -4.2340   -4.6600   -2.7270 h1        1 MOL      0.023073
    147 H66        -5.7780   -3.9530   -3.1920 h1        1 MOL      0.023073
    148 N13        -3.7450   -5.0100    1.0140 n         1 MOL      0.044827
    149 C50        -2.8560   -5.1890    2.1450 c3        1 MOL     -0.699750
    150 C51        -3.2670   -4.1790    3.2850 c         1 MOL      0.642758
    151 O21        -2.7820   -4.3100    4.4310 o         1 MOL     -0.565367
    152 C52        -1.4620   -4.9500    1.5840 c3        1 MOL      0.257594
    153 C53        -0.9050   -5.8880    0.5060 c3        1 MOL     -0.006752
    154 C54         0.4780   -5.4660    0.0420 c         1 MOL      0.525211
    155 O22         1.5160   -5.8810    0.5710 o         1 MOL     -0.674183
    156 O23         0.5310   -4.6190   -0.9160 o         1 MOL     -0.674183
    157 H67        -3.5700   -4.3770    0.2550 hn        1 MOL      0.161310
    158 H68        -2.8740   -6.2270    2.4870 h1        1 MOL      0.238322
    159 H69        -0.8070   -4.8280    2.4410 hc        1 MOL      0.044641
    160 H70        -1.4430   -3.9160    1.2280 hc        1 MOL      0.044641
    161 H71        -1.6200   -5.7910   -0.3150 hc        1 MOL     -0.031298
    162 H72        -0.9090   -6.9390    0.8010 hc        1 MOL     -0.031298
    163 N14        -3.9090   -3.0710    2.9200 n         1 MOL     -0.286963
    164 C55        -4.5630   -2.1540    3.8100 c3        1 MOL     -0.235315
    165 H73        -4.5730   -1.1590    3.3640 h1        1 MOL      0.098774
    166 H74        -5.5880   -2.4830    3.9850 h1        1 MOL      0.098774
    167 H75        -4.0260   -2.1210    4.7580 h1        1 MOL      0.098774
    168 H76        -4.1480   -3.0900    1.9420 hn        1 MOL      0.310186
    169 Ca1         1.8860   -2.8680   -2.1820 Ca        1 MOL      1.767398
    170 O24         1.2900   -1.7650   -4.7450 oh        1 MOL     -0.874226
    171 H77         0.4510   -1.3610   -4.9670 ho        1 MOL      0.416478
    172 H78         1.8700   -1.5450   -5.4810 ho        1 MOL      0.416478
    173 O25         0.5770   -4.4940   -3.9280 oh        1 MOL     -0.874226
    174 H79         1.1830   -4.8380   -4.5940 ho        1 MOL      0.416478
    175 H80        -0.2860   -4.5790   -4.3300 ho        1 MOL      0.416478
    176 O26         3.7130   -3.4970   -3.8600 oh        1 MOL     -0.874226
    177 H81         4.3190   -4.2280   -3.7420 ho        1 MOL      0.416478
    178 H82         3.6600   -3.3820   -4.8090 ho        1 MOL      0.416478
    179 O27         3.2050   -5.2320   -1.2160 oh        1 MOL     -0.874226
    180 H83         2.5800   -5.4820   -0.5330 ho        1 MOL      0.416478
    181 H84         3.2150   -5.9750   -1.8240 ho        1 MOL      0.416478
@<TRIPOS>BOND
     1    1    2 1   
     2    1    4 1   
     3    1    5 1   
     4    1    6 1   
     5    2    3 2   
     6    2    7 1   
     7    7    8 1   
     8    7   15 1   
     9    8    9 1   
    10    8   11 1   
    11    8   16 1   
    12    9   10 2   
    13    9   19 1   
    14   11   12 1   
    15   11   17 1   
    16   11   18 1   
    17   12   13 1   
    18   12   14 1   
    19   19   20 1   
    20   19   24 1   
    21   20   21 1   
    22   20   23 1   
    23   20   25 1   
    24   21   22 2   
    25   21   29 1   
    26   23   26 1   
    27   23   27 1   
    28   23   28 1   
    29   29   30 1   
    30   29   37 1   
    31   30   31 1   
    32   30   33 1   
    33   30   38 1   
    34   31   32 2   
    35   31   41 1   
    36   33   34 1   
    37   33   39 1   
    38   33   40 1   
    39   34   35 1   
    40   34   36 1   
    41   41   42 1   
    42   41   45 1   
    43   42   43 1   
    44   42   46 1   
    45   42   47 1   
    46   43   44 2   
    47   43   48 1   
    48   48   49 1   
    49   48   56 1   
    50   49   50 1   
    51   49   52 1   
    52   49   57 1   
    53   50   51 2   
    54   50   62 1   
    55   52   53 1   
    56   52   58 1   
    57   52   59 1   
    58   53   54 1   
    59   53   55 2   
    60   54   60 1   
    61   54   61 1   
    62   62   63 1   
    63   62   66 1   
    64   63   64 1   
    65   63   67 1   
    66   63   68 1   
    67   64   65 2   
    68   64   69 1   
    69   69   70 1   
    70   69   76 1   
    71   70   71 1   
    72   70   73 1   
    73   70   77 1   
    74   71   72 2   
    75   71   83 1   
    76   73   74 1   
    77   73   75 1   
    78   73   78 1   
    79   74   80 1   
    80   74   81 1   
    81   74   82 1   
    82   75   79 1   
    83   83   84 1   
    84   83   91 1   
    85   84   85 1   
    86   84   87 1   
    87   84   92 1   
    88   85   86 2   
    89   85  102 1   
    90   87   88 1   
    91   87   89 1   
    92   87   93 1   
    93   88   90 1   
    94   88   94 1   
    95   88   95 1   
    96   89   96 1   
    97   89   97 1   
    98   89   98 1   
    99   90   99 1   
   100   90  100 1   
   101   90  101 1   
   102  102  103 1   
   103  102  110 1   
   104  103  104 1   
   105  103  106 1   
   106  103  111 1   
   107  104  105 2   
   108  104  114 1   
   109  106  107 1   
   110  106  112 1   
   111  106  113 1   
   112  107  108 1   
   113  107  109 1   
   114  114  115 1   
   115  114  125 1   
   116  115  116 1   
   117  115  118 1   
   118  115  126 1   
   119  116  117 2   
   120  116  134 1   
   121  118  119 1   
   122  118  127 1   
   123  118  128 1   
   124  119  120 ar  
   125  119  121 ar  
   126  120  122 ar  
   127  120  129 1   
   128  121  123 ar  
   129  121  130 1   
   130  122  124 ar  
   131  122  131 1   
   132  123  124 ar  
   133  123  132 1   
   134  124  133 1   
   135  134  135 1   
   136  134  140 1   
   137  135  136 1   
   138  135  138 1   
   139  135  141 1   
   140  136  137 2   
   141  136  148 1   
   142  138  139 1   
   143  138  142 1   
   144  138  143 1   
   145  139  140 1   
   146  139  144 1   
   147  139  145 1   
   148  140  146 1   
   149  140  147 1   
   150  148  149 1   
   151  148  157 1   
   152  149  150 1   
   153  149  152 1   
   154  149  158 1   
   155  150  151 2   
   156  150  163 1   
   157  152  153 1   
   158  152  159 1   
   159  152  160 1   
   160  153  154 1   
   161  153  161 1   
   162  153  162 1   
   163  154  155 1   
   164  154  156 1   
   165  163  164 1   
   166  163  168 1   
   167  164  165 1   
   168  164  166 1   
   169  164  167 1   
   170  170  171 1   
   171  170  172 1   
   172  173  174 1   
   173  173  175 1   
   174  176  177 1   
   175  176  178 1   
   176  179  180 1   
   177  179  181 1   
@<TRIPOS>SUBSTRUCTURE
     1 MOL         1 TEMP              0 ****  ****    0 ROOT
