@<TRIPOS>MOLECULE
MOL
  189   185     1     0     0
SMALL
resp


@<TRIPOS>ATOM
      1 C1         12.4620    4.9570   -1.8720 c3        1 MOL     -0.302721
      2 C2         12.0860    3.9340   -0.7150 c         1 MOL      0.526932
      3 O1         12.9640    3.1360   -0.2500 o         1 MOL     -0.536744
      4 H1         13.4150    4.6700   -2.3160 hc        1 MOL      0.088607
      5 H2         11.6860    4.9420   -2.6380 hc        1 MOL      0.088607
      6 H3         12.5430    5.9620   -1.4560 hc        1 MOL      0.088607
      7 N1         10.7910    3.8990   -0.3100 n         1 MOL     -0.161097
      8 C3         10.2980    3.0180    0.7660 c3        1 MOL     -0.265135
      9 C4          8.8370    2.4920    0.4680 c         1 MOL      0.343636
     10 O2          8.1190    3.0890   -0.3280 o         1 MOL     -0.561877
     11 C5         10.1640    3.8150    2.0720 c3        1 MOL     -0.056158
     12 C6          9.3900    5.2350    2.0590 c         1 MOL      0.616449
     13 O3          8.2550    5.3770    1.5780 o         1 MOL     -0.681971
     14 O4          9.9710    6.2670    2.5510 o         1 MOL     -0.681971
     15 H4         10.1620    4.5280   -0.7760 hn        1 MOL      0.159881
     16 H5         10.9930    2.2040    0.9610 h1        1 MOL      0.144688
     17 H6         11.1490    3.9980    2.5030 hc        1 MOL      0.071658
     18 H7          9.7110    3.1810    2.8380 hc        1 MOL      0.071658
     19 N2          8.6050    1.2950    1.0100 n         1 MOL     -0.248763
     20 C7          7.6120    0.4350    0.4520 c3        1 MOL      0.210375
     21 C8          6.4010    0.1120    1.2910 c         1 MOL      0.472282
     22 O5          6.4050   -0.7920    2.1480 o         1 MOL     -0.510014
     23 C9          8.2710   -0.7980   -0.1620 c3        1 MOL     -0.362101
     24 C10         7.3730   -1.7330   -0.9390 c3        1 MOL      0.171008
     25 C11         8.1080   -3.0100   -1.4750 c3        1 MOL     -0.075990
     26 C12         7.1000   -3.5840   -2.4820 c3        1 MOL      0.031847
     27 N3          7.6890   -4.7900   -3.1370 n4        1 MOL     -0.420838
     28 H8          9.2980    0.8950    1.6300 hn        1 MOL      0.284924
     29 H9          7.1680    1.0050   -0.3650 h1        1 MOL      0.008521
     30 H10         8.8630   -1.3150    0.5930 hc        1 MOL      0.091888
     31 H11         9.0090   -0.4220   -0.8740 hc        1 MOL      0.091888
     32 H12         6.9470   -1.2820   -1.8330 hc        1 MOL     -0.002624
     33 H13         6.5420   -1.9590   -0.2750 hc        1 MOL     -0.002624
     34 H14         8.2300   -3.7100   -0.6520 hc        1 MOL      0.061675
     35 H15         9.0920   -2.8220   -1.8970 hc        1 MOL      0.061675
     36 H16         6.8110   -2.9080   -3.2830 hx        1 MOL      0.090203
     37 H17         6.2440   -3.8870   -1.8920 hx        1 MOL      0.090203
     38 H18         7.6210   -5.5230   -2.4460 hn        1 MOL      0.300803
     39 H19         7.2370   -5.1440   -3.9680 hn        1 MOL      0.300803
     40 H20         8.6440   -4.6260   -3.4300 hn        1 MOL      0.300803
     41 N4          5.3030    0.8490    1.0750 n         1 MOL     -0.786756
     42 C13         3.9540    0.6850    1.6450 c3        1 MOL      0.771297
     43 C14         2.9770    0.3300    0.5170 c         1 MOL      0.456318
     44 O6          3.3720    0.4360   -0.6670 o         1 MOL     -0.583344
     45 C15         3.6210    2.0160    2.3260 c3        1 MOL     -0.158415
     46 C16         3.7750    3.1940    1.4030 c         1 MOL      0.691219
     47 O7          2.7720    3.6830    0.7380 o         1 MOL     -0.760417
     48 O8          4.9160    3.7030    1.2020 o         1 MOL     -0.760417
     49 H21         5.3040    1.5000    0.2950 hn        1 MOL      0.355740
     50 H22         3.9180   -0.1110    2.3800 h1        1 MOL     -0.081896
     51 H23         4.0860    2.2470    3.2900 hc        1 MOL      0.031752
     52 H24         2.5510    1.9910    2.5480 hc        1 MOL      0.031752
     53 N5          1.7730   -0.1560    0.7850 n         1 MOL     -0.480843
     54 C17         1.1970   -0.6870    2.0520 c3        1 MOL     -0.053760
     55 C18         1.6330   -2.1160    2.4390 c         1 MOL      0.626310
     56 O9          2.8090   -2.4890    2.4550 o         1 MOL     -0.555684
     57 H25         1.1700   -0.2630   -0.0200 hn        1 MOL      0.303910
     58 H26         0.1080   -0.7380    2.0110 h1        1 MOL      0.056498
     59 H27         1.5290   -0.0050    2.8290 h1        1 MOL      0.056498
     60 N6          0.6340   -2.8200    2.9150 n         1 MOL     -0.449711
     61 C19         0.7040   -4.2280    3.5050 c3        1 MOL      0.188166
     62 C20         0.0310   -5.1810    2.5320 c         1 MOL      0.379857
     63 O10        -1.1250   -4.9590    2.0920 o         1 MOL     -0.450251
     64 C21         0.1070   -4.1790    4.9190 c3        1 MOL     -0.305643
     65 C22         0.2730   -5.5250    5.5730 c         1 MOL      0.700013
     66 O11         1.3600   -5.7270    6.2360 o         1 MOL     -0.662518
     67 O12        -0.6050   -6.3970    5.4200 o         1 MOL     -0.662518
     68 H28        -0.2600   -2.3520    2.9960 hn        1 MOL      0.235413
     69 H29         1.7720   -4.4370    3.5140 h1        1 MOL      0.053697
     70 H30        -0.9610   -3.9550    4.8500 hc        1 MOL      0.086789
     71 H31         0.7740   -3.4930    5.4320 hc        1 MOL      0.086789
     72 N7          0.7470   -6.2910    2.1610 n         1 MOL     -0.245090
     73 C23         0.2070   -7.2980    1.2940 c3        1 MOL     -0.124587
     74 C24         0.1970   -6.9290   -0.1840 c         1 MOL      0.394850
     75 O13        -0.4900   -7.6250   -0.8970 o         1 MOL     -0.532791
     76 H32         1.6270   -6.4260    2.6390 hn        1 MOL      0.242592
     77 H33        -0.8090   -7.3910    1.6970 h1        1 MOL      0.130049
     78 H34         0.6110   -8.3060    1.3950 h1        1 MOL      0.130049
     79 N8          0.7070   -5.7660   -0.5850 n         1 MOL     -0.081539
     80 C25         0.6630   -5.1570   -1.9400 c3        1 MOL     -0.133000
     81 C26         0.6370   -3.6740   -1.6850 c         1 MOL      0.683646
     82 O14         1.1160   -3.1920   -0.6700 o         1 MOL     -0.508388
     83 C27         1.8870   -5.4160   -2.8480 c3        1 MOL      0.471969
     84 C28         3.3110   -5.3340   -2.3380 c3        1 MOL     -0.298562
     85 O15         1.7590   -6.6740   -3.3730 oh        1 MOL     -0.621923
     86 H35         1.1460   -5.2730    0.1770 hn        1 MOL      0.052209
     87 H36        -0.2350   -5.4570   -2.4710 h1        1 MOL      0.089509
     88 H37         1.8150   -4.7200   -3.6830 h1        1 MOL     -0.107006
     89 H38         0.8730   -6.7940   -3.7180 ho        1 MOL      0.385462
     90 H39         3.9770   -5.6430   -3.1360 hc        1 MOL      0.075315
     91 H40         3.5430   -4.3260   -2.0080 hc        1 MOL      0.075315
     92 H41         3.3500   -6.1350   -1.5870 hc        1 MOL      0.075315
     93 N9          0.1430   -2.9220   -2.6450 n         1 MOL     -0.589384
     94 C29         0.1700   -1.3670   -2.5240 c3        1 MOL     -0.023213
     95 C30        -1.0120   -0.8190   -1.6980 c         1 MOL      0.607915
     96 O16        -0.8590    0.0970   -0.8940 o         1 MOL     -0.526495
     97 C31         0.2610   -0.6950   -3.8900 c3        1 MOL      0.202540
     98 C32         1.3440   -1.2780   -4.7900 c3        1 MOL      0.042656
     99 C33         0.5120    0.7980   -3.7410 c3        1 MOL     -0.228964
    100 C34         1.7330   -0.4870   -6.0620 c3        1 MOL     -0.079596
    101 H42        -0.1960   -3.3950   -3.4730 hn        1 MOL      0.301643
    102 H43         1.0590   -1.0400   -1.9790 h1        1 MOL      0.057289
    103 H44        -0.6930   -0.7310   -4.4280 hc        1 MOL     -0.028562
    104 H45         0.9010   -2.1760   -5.2290 hc        1 MOL     -0.012535
    105 H46         2.2110   -1.5130   -4.1870 hc        1 MOL     -0.012535
    106 H47        -0.2380    1.2320   -3.0810 hc        1 MOL      0.063618
    107 H48         1.5400    0.8380   -3.3810 hc        1 MOL      0.063618
    108 H49         0.4970    1.3550   -4.6800 hc        1 MOL      0.063618
    109 H50         2.3310    0.3970   -5.8040 hc        1 MOL      0.015220
    110 H51         2.4620   -1.1450   -6.5380 hc        1 MOL      0.015220
    111 H52         0.9490   -0.2620   -6.7860 hc        1 MOL      0.015220
    112 N10        -2.1400   -1.4790   -1.8980 n         1 MOL     -0.532026
    113 C35        -3.2740   -1.5150   -0.9150 c3        1 MOL      0.042906
    114 C36        -4.6390   -2.0670   -1.5200 c         1 MOL      0.488660
    115 O17        -4.4940   -2.9600   -2.3610 o         1 MOL     -0.484946
    116 C37        -2.8000   -2.5220    0.2260 c3        1 MOL      0.562156
    117 C38        -3.8140   -2.7980    1.3140 c3        1 MOL     -0.315197
    118 O18        -2.1160   -3.6720   -0.1790 oh        1 MOL     -0.615865
    119 H53        -2.0590   -2.2500   -2.5510 hn        1 MOL      0.288641
    120 H54        -3.5340   -0.5970   -0.4070 h1        1 MOL      0.043406
    121 H55        -2.0550   -1.8800    0.6940 h1        1 MOL     -0.070569
    122 H56        -1.6350   -3.9060    0.6230 ho        1 MOL      0.329934
    123 H57        -4.4010   -1.8930    1.4140 hc        1 MOL      0.068083
    124 H58        -4.4870   -3.5560    0.9150 hc        1 MOL      0.068083
    125 H59        -3.2900   -3.0710    2.2340 hc        1 MOL      0.068083
    126 N11        -5.8140   -1.5860   -1.0130 n         1 MOL     -0.437672
    127 C39        -7.1970   -2.0780   -1.3110 c3        1 MOL      0.111632
    128 C40        -8.1260   -0.8630   -1.4620 c         1 MOL      0.466403
    129 O19        -8.7430   -0.7630   -2.5620 o         1 MOL     -0.515327
    130 C41        -7.8520   -3.1270   -0.3330 c3        1 MOL      0.201736
    131 C42        -9.2640   -3.5770   -0.5300 c3        1 MOL     -0.349101
    132 O20        -7.9330   -2.6140    0.9500 oh        1 MOL     -0.642221
    133 H60        -5.7670   -0.7010   -0.5130 hn        1 MOL      0.262042
    134 H61        -7.1400   -2.6240   -2.2490 h1        1 MOL      0.068576
    135 H62        -7.1550   -3.9620   -0.3360 h1        1 MOL      0.061884
    136 H63        -8.5080   -3.2370    1.3890 ho        1 MOL      0.419019
    137 H64        -9.5180   -3.9970   -1.4960 hc        1 MOL      0.101349
    138 H65        -9.6850   -4.2620    0.2070 hc        1 MOL      0.101349
    139 H66        -9.8420   -2.6490   -0.4320 hc        1 MOL      0.101349
    140 N12        -8.2050    0.0540   -0.4470 n         1 MOL     -0.416431
    141 C43        -9.0410    1.2720   -0.5260 c3        1 MOL     -0.118959
    142 C44        -8.3300    2.2930    0.4690 c         1 MOL      0.505064
    143 O21        -8.0310    1.9880    1.6190 o         1 MOL     -0.500262
    144 C45       -10.5180    1.0420   -0.1590 c3        1 MOL     -0.023304
    145 C46       -11.4070    2.2580   -0.3840 c3        1 MOL     -0.009360
    146 C47       -12.8520    2.0270   -0.0130 c3        1 MOL      0.037332
    147 C48       -13.0310    1.6530    1.4890 c3        1 MOL     -0.073764
    148 N13       -14.3490    1.1240    1.8490 n4        1 MOL     -0.301272
    149 H67        -7.6790   -0.1610    0.3880 hn        1 MOL      0.332625
    150 H68        -9.0660    1.7320   -1.5180 h1        1 MOL      0.104350
    151 H69       -10.4820    0.7840    0.8970 hc        1 MOL      0.027831
    152 H70       -10.9370    0.1820   -0.6860 hc        1 MOL      0.027831
    153 H71       -11.3360    2.4180   -1.4590 hc        1 MOL      0.034787
    154 H72       -11.0270    3.1530    0.1100 hc        1 MOL      0.034787
    155 H73       -13.2710    1.2690   -0.6720 hc        1 MOL      0.023901
    156 H74       -13.3550    2.9810   -0.1950 hc        1 MOL      0.023901
    157 H75       -12.8990    2.6300    1.9350 hx        1 MOL      0.115955
    158 H76       -12.3050    0.8870    1.7770 hx        1 MOL      0.115955
    159 H77       -14.4460    1.0080    2.8490 hn        1 MOL      0.279733
    160 H78       -15.0730    1.7690    1.5640 hn        1 MOL      0.279733
    161 H79       -14.4720    0.2130    1.4300 hn        1 MOL      0.279733
    162 N14        -8.1660    3.5060   -0.0410 n         1 MOL     -0.444105
    163 C49        -7.4770    4.6050    0.6030 c3        1 MOL      0.254253
    164 C50        -5.9530    4.3820    0.5950 c         1 MOL      0.359339
    165 O22        -5.3100    4.3870    1.6570 o         1 MOL     -0.531471
    166 C51        -7.8940    5.9490   -0.0350 c3        1 MOL      0.046387
    167 C52        -9.3160    6.3180    0.3170 c3        1 MOL     -0.161819
    168 C53        -9.5020    7.8210    0.1460 c         1 MOL      0.724533
    169 O23        -9.8540    8.5150    1.1060 o         1 MOL     -0.673411
    170 O24        -9.2410    8.2960   -0.9620 o         1 MOL     -0.673411
    171 H80        -8.6030    3.6410   -0.9390 hn        1 MOL      0.286534
    172 H81        -7.8170    4.7440    1.6300 h1        1 MOL      0.034507
    173 H82        -7.6580    5.7980   -1.0910 hc        1 MOL      0.014079
    174 H83        -7.2430    6.7280    0.3660 hc        1 MOL      0.014079
    175 H84        -9.5520    5.8850    1.2830 hc        1 MOL     -0.014321
    176 H85        -9.9860    5.8080   -0.3740 hc        1 MOL     -0.014321
    177 N15        -5.2620    4.1480   -0.5200 n         1 MOL     -0.348896
    178 C54        -5.5420    4.3530   -1.9390 c3        1 MOL     -0.073528
    179 H86        -6.6210    4.4050   -2.0910 h1        1 MOL      0.056321
    180 H87        -5.0840    5.2840   -2.2700 h1        1 MOL      0.056321
    181 H88        -5.1350    3.5220   -2.5140 h1        1 MOL      0.056321
    182 H89        -4.2820    4.0570   -0.2860 hn        1 MOL      0.306526
    183 Ca1         6.3820    5.3500   -0.2170 Ca        1 MOL      1.733941
    184 O25         5.6940    3.2730   -1.6900 oh        1 MOL     -0.961800
    185 H90         5.0340    2.7820   -2.1740 ho        1 MOL      0.470925
    186 H91         6.5100    2.7950   -1.8260 ho        1 MOL      0.470925
    187 O26         3.7620    5.6070   -0.7660 oh        1 MOL     -0.961800
    188 H92         2.9380    5.9850   -1.0710 ho        1 MOL      0.470925
    189 H93         3.5060    4.9380   -0.1320 ho        1 MOL      0.470925
@<TRIPOS>BOND
     1    1    2 1   
     2    1    4 1   
     3    1    5 1   
     4    1    6 1   
     5    2    3 2   
     6    2    7 1   
     7    7    8 1   
     8    7   15 1   
     9    8    9 1   
    10    8   11 1   
    11    8   16 1   
    12    9   10 2   
    13    9   19 1   
    14   11   12 1   
    15   11   17 1   
    16   11   18 1   
    17   12   13 1   
    18   12   14 1   
    19   19   20 1   
    20   19   28 1   
    21   20   21 1   
    22   20   23 1   
    23   20   29 1   
    24   21   22 2   
    25   21   41 1   
    26   23   24 1   
    27   23   30 1   
    28   23   31 1   
    29   24   25 1   
    30   24   32 1   
    31   24   33 1   
    32   25   26 1   
    33   25   34 1   
    34   25   35 1   
    35   26   27 1   
    36   26   36 1   
    37   26   37 1   
    38   27   38 1   
    39   27   39 1   
    40   27   40 1   
    41   41   42 1   
    42   41   49 1   
    43   42   43 1   
    44   42   45 1   
    45   42   50 1   
    46   43   44 2   
    47   43   53 1   
    48   45   46 1   
    49   45   51 1   
    50   45   52 1   
    51   46   47 1   
    52   46   48 1   
    53   53   54 1   
    54   53   57 1   
    55   54   55 1   
    56   54   58 1   
    57   54   59 1   
    58   55   56 2   
    59   55   60 1   
    60   60   61 1   
    61   60   68 1   
    62   61   62 1   
    63   61   64 1   
    64   61   69 1   
    65   62   63 2   
    66   62   72 1   
    67   64   65 1   
    68   64   70 1   
    69   64   71 1   
    70   65   66 1   
    71   65   67 1   
    72   72   73 1   
    73   72   76 1   
    74   73   74 1   
    75   73   77 1   
    76   73   78 1   
    77   74   75 2   
    78   74   79 1   
    79   79   80 1   
    80   79   86 1   
    81   80   81 1   
    82   80   83 1   
    83   80   87 1   
    84   81   82 2   
    85   81   93 1   
    86   83   84 1   
    87   83   85 1   
    88   83   88 1   
    89   84   90 1   
    90   84   91 1   
    91   84   92 1   
    92   85   89 1   
    93   93   94 1   
    94   93  101 1   
    95   94   95 1   
    96   94   97 1   
    97   94  102 1   
    98   95   96 2   
    99   95  112 1   
   100   97   98 1   
   101   97   99 1   
   102   97  103 1   
   103   98  100 1   
   104   98  104 1   
   105   98  105 1   
   106   99  106 1   
   107   99  107 1   
   108   99  108 1   
   109  100  109 1   
   110  100  110 1   
   111  100  111 1   
   112  112  113 1   
   113  112  119 1   
   114  113  114 1   
   115  113  116 1   
   116  113  120 1   
   117  114  115 2   
   118  114  126 1   
   119  116  117 1   
   120  116  118 1   
   121  116  121 1   
   122  117  123 1   
   123  117  124 1   
   124  117  125 1   
   125  118  122 1   
   126  126  127 1   
   127  126  133 1   
   128  127  128 1   
   129  127  130 1   
   130  127  134 1   
   131  128  129 2   
   132  128  140 1   
   133  130  131 1   
   134  130  132 1   
   135  130  135 1   
   136  131  137 1   
   137  131  138 1   
   138  131  139 1   
   139  132  136 1   
   140  140  141 1   
   141  140  149 1   
   142  141  142 1   
   143  141  144 1   
   144  141  150 1   
   145  142  143 2   
   146  142  162 1   
   147  144  145 1   
   148  144  151 1   
   149  144  152 1   
   150  145  146 1   
   151  145  153 1   
   152  145  154 1   
   153  146  147 1   
   154  146  155 1   
   155  146  156 1   
   156  147  148 1   
   157  147  157 1   
   158  147  158 1   
   159  148  159 1   
   160  148  160 1   
   161  148  161 1   
   162  162  163 1   
   163  162  171 1   
   164  163  164 1   
   165  163  166 1   
   166  163  172 1   
   167  164  165 2   
   168  164  177 1   
   169  166  167 1   
   170  166  173 1   
   171  166  174 1   
   172  167  168 1   
   173  167  175 1   
   174  167  176 1   
   175  168  169 1   
   176  168  170 1   
   177  177  178 1   
   178  177  182 1   
   179  178  179 1   
   180  178  180 1   
   181  178  181 1   
   182  184  185 1   
   183  184  186 1   
   184  187  188 1   
   185  187  189 1   
@<TRIPOS>SUBSTRUCTURE
     1 MOL         1 TEMP              0 ****  ****    0 ROOT
