@<TRIPOS>MOLECULE
MOL
  191   184     1     0     0
SMALL
resp


@<TRIPOS>ATOM
      1 C1          0.7980    1.5620    2.6250 c3        1 MOL     -0.312292
      2 C2          2.0960    1.3420    1.7940 c         1 MOL      0.790820
      3 O1          2.0340    1.5100    0.5800 o         1 MOL     -0.618440
      4 H1         -0.0670    1.2780    2.0270 hc        1 MOL      0.063561
      5 H2          0.8350    0.9490    3.5260 hc        1 MOL      0.063561
      6 H3          0.7180    2.6130    2.9030 hc        1 MOL      0.063561
      7 N1          3.1710    0.9830    2.4710 n         1 MOL     -0.590150
      8 C3          4.5820    0.7030    1.9590 c3        1 MOL      0.195475
      9 C4          4.8740   -0.7660    1.7560 c         1 MOL      0.501170
     10 O2          5.9750   -1.2590    1.5380 o         1 MOL     -0.559434
     11 C5          5.5800    1.4770    2.9160 c3        1 MOL     -0.126615
     12 C6          5.4170    1.1500    4.4190 c         1 MOL      0.697563
     13 O3          6.2340    1.6900    5.1950 o         1 MOL     -0.697478
     14 O4          4.5500    0.3510    4.7310 o         1 MOL     -0.697478
     15 H4          3.0280    0.7700    3.4430 hn        1 MOL      0.295144
     16 H5          4.7000    1.1120    0.9570 h1        1 MOL     -0.010155
     17 H6          5.3520    2.5190    2.6900 hc        1 MOL      0.035853
     18 H7          6.5910    1.3030    2.5540 hc        1 MOL      0.035853
     19 N2          3.7890   -1.5360    1.6920 n         1 MOL     -0.309091
     20 C7          3.7970   -3.0410    1.5830 c3        1 MOL      0.071298
     21 C8          4.3220   -3.5920    0.2590 c         1 MOL      0.571183
     22 O5          4.4130   -4.8160    0.1630 o         1 MOL     -0.603564
     23 C9          4.4530   -3.6620    2.8400 c3        1 MOL     -0.185073
     24 C10         3.7730   -3.1750    4.1280 c3        1 MOL      0.181699
     25 C11         4.6620   -3.7020    5.3120 c3        1 MOL     -0.128686
     26 C12         4.1900   -3.2550    6.7100 c3        1 MOL      0.172159
     27 N3          5.1760   -3.7300    7.7490 n4        1 MOL     -0.458595
     28 H8          2.9250   -1.0200    1.6150 hn        1 MOL      0.187727
     29 H9          2.7830   -3.4310    1.5730 h1        1 MOL      0.088369
     30 H10         5.4970   -3.3490    2.7730 hc        1 MOL      0.055823
     31 H11         4.3760   -4.7520    2.7810 hc        1 MOL      0.055823
     32 H12         2.7480   -3.5430    4.1910 hc        1 MOL     -0.039448
     33 H13         3.7550   -2.0810    4.2270 hc        1 MOL     -0.039448
     34 H14         5.6500   -3.2620    5.1630 hc        1 MOL      0.047010
     35 H15         4.6990   -4.7820    5.1560 hc        1 MOL      0.047010
     36 H16         3.2450   -3.7780    6.8650 hx        1 MOL      0.045545
     37 H17         4.0680   -2.1710    6.6750 hx        1 MOL      0.045545
     38 H18         4.9820   -3.2900    8.6410 hn        1 MOL      0.345556
     39 H19         5.3190   -4.7240    7.7680 hn        1 MOL      0.345556
     40 H20         6.0630   -3.2700    7.6110 hn        1 MOL      0.345556
     41 N4          4.4350   -2.7980   -0.7580 n         1 MOL     -0.375791
     42 C13         4.8620   -3.3490   -2.0120 c3        1 MOL      0.145110
     43 C14         5.5620   -2.3480   -2.9680 c         1 MOL      0.446626
     44 O6          6.4380   -2.7680   -3.7190 o         1 MOL     -0.527085
     45 C15         3.7010   -4.1130   -2.7220 c3        1 MOL     -0.680407
     46 C16         2.3730   -3.2550   -2.6180 c         1 MOL      0.712880
     47 O7          1.4120   -3.8250   -2.0360 o         1 MOL     -0.673065
     48 O8          2.2390   -2.0550   -2.7940 o         1 MOL     -0.673065
     49 H21         4.2820   -1.7950   -0.7560 hn        1 MOL      0.224534
     50 H22         5.5910   -4.1200   -1.7580 h1        1 MOL      0.110938
     51 H23         3.5340   -5.1060   -2.3230 hc        1 MOL      0.186423
     52 H24         3.9910   -4.0960   -3.7720 hc        1 MOL      0.186423
     53 N5          5.2430   -1.0780   -2.8520 n         1 MOL     -0.333053
     54 C17         5.8830    0.1030   -3.4680 c3        1 MOL      0.098696
     55 C18         7.0160    0.5100   -2.5310 c         1 MOL      0.452491
     56 O9          8.0210   -0.2210   -2.3920 o         1 MOL     -0.492859
     57 H25         4.6080   -0.8670   -2.0880 hn        1 MOL      0.311596
     58 H26         5.1080    0.8410   -3.6400 h1        1 MOL      0.038111
     59 H27         6.3640   -0.2180   -4.3950 h1        1 MOL      0.038111
     60 N6          7.0420    1.7040   -1.9690 n         1 MOL     -0.500379
     61 C19         6.0130    2.8200   -2.0230 c3        1 MOL      0.325778
     62 C20         5.8890    3.3710   -0.5720 c         1 MOL      0.498609
     63 O10         6.7920    3.1800    0.2680 o         1 MOL     -0.528183
     64 C21         6.5790    3.8380   -3.0420 c3        1 MOL     -0.559819
     65 C22         6.8440    3.2360   -4.3510 c         1 MOL      0.837338
     66 N7          5.8830    2.9150   -5.1380 n         1 MOL     -0.855345
     67 O11         7.9400    3.1220   -4.8280 o         1 MOL     -0.581616
     68 H28         7.9460    1.9390   -1.5740 hn        1 MOL      0.324131
     69 H29         5.0270    2.5130   -2.3640 h1        1 MOL      0.032311
     70 H30         7.5380    4.2460   -2.7120 hc        1 MOL      0.141889
     71 H31         5.8190    4.5940   -3.2210 hc        1 MOL      0.141889
     72 H32         4.9660    2.9290   -4.7340 hn        1 MOL      0.378980
     73 H33         6.1250    2.6270   -6.0770 hn        1 MOL      0.378980
     74 N8          4.8350    4.0260   -0.1170 n         1 MOL     -0.435584
     75 C23         3.5270    4.0830   -0.7860 c3        1 MOL     -0.075453
     76 C24         2.4110    4.7510   -0.0420 c         1 MOL      0.700108
     77 O12         2.5210    4.8830    1.1720 o         1 MOL     -0.542299
     78 H34         4.8870    4.3850    0.8240 hn        1 MOL      0.323130
     79 H35         3.2620    3.0880   -1.1580 h1        1 MOL      0.029848
     80 H36         3.6290    4.6860   -1.6850 h1        1 MOL      0.029848
     81 N9          1.3800    5.2410   -0.7590 n         1 MOL     -0.682460
     82 C25         0.1730    5.8220   -0.2790 c3        1 MOL      0.428265
     83 C26        -0.9910    4.7800   -0.1320 c         1 MOL      0.411291
     84 O13        -0.9430    3.6100   -0.5400 o         1 MOL     -0.506091
     85 C27        -0.1250    7.0270   -1.1720 c3        1 MOL     -0.017668
     86 C28        -1.2850    7.7670   -0.5670 ca        1 MOL     -0.025182
     87 C29        -2.5030    7.7840   -1.3120 ca        1 MOL     -0.152591
     88 C30        -1.2000    8.4870    0.6850 ca        1 MOL     -0.152591
     89 C31        -3.6440    8.3550   -0.7850 ca        1 MOL     -0.260987
     90 C32        -2.3460    9.1690    1.0920 ca        1 MOL     -0.260987
     91 C33        -3.5840    9.0780    0.4130 ca        1 MOL      0.396664
     92 O14        -4.6190    9.7860    0.9080 oh        1 MOL     -0.524381
     93 H37         1.4380    5.0310   -1.7510 hn        1 MOL      0.298446
     94 H38         0.3440    6.3080    0.6800 h1        1 MOL     -0.027735
     95 H39        -0.3170    6.6560   -2.1810 hc        1 MOL      0.018397
     96 H40         0.7910    7.6010   -1.2120 hc        1 MOL      0.018397
     97 H41        -2.5830    7.2550   -2.2560 ha        1 MOL      0.149015
     98 H42        -0.3400    8.4450    1.3450 ha        1 MOL      0.149015
     99 H43        -4.5370    8.2710   -1.3830 ha        1 MOL      0.140714
    100 H44        -2.2140    9.6990    2.0220 ha        1 MOL      0.140714
    101 H45        -4.4930   10.2480    1.7380 ho        1 MOL      0.380783
    102 N10        -2.0070    5.1340    0.6370 n         1 MOL     -0.320493
    103 C34        -3.1540    4.1850    0.8280 c3        1 MOL     -0.231829
    104 C35        -4.0140    4.0090   -0.3960 c         1 MOL      0.555351
    105 O15        -4.1080    4.8330   -1.3110 o         1 MOL     -0.483969
    106 C36        -4.0500    4.7230    2.0070 c3        1 MOL      0.252305
    107 C37        -3.4740    4.2830    3.3480 c3        1 MOL      0.027921
    108 C38        -4.2800    6.2550    1.9010 c3        1 MOL     -0.012897
    109 C39        -4.3090    4.7330    4.5430 c3        1 MOL     -0.271298
    110 H46        -1.9630    6.0140    1.1320 hn        1 MOL      0.204396
    111 H47        -2.7190    3.2230    1.1270 h1        1 MOL      0.131720
    112 H48        -5.0170    4.2200    1.9890 hc        1 MOL     -0.011458
    113 H49        -2.4750    4.6930    3.4600 hc        1 MOL      0.010350
    114 H50        -3.4220    3.1960    3.3550 hc        1 MOL      0.010350
    115 H51        -5.0820    6.5230    2.5920 hc        1 MOL     -0.008185
    116 H52        -3.4070    6.8470    2.1530 hc        1 MOL     -0.008185
    117 H53        -4.5230    6.5670    0.8870 hc        1 MOL     -0.008185
    118 H54        -3.9780    5.7210    4.8620 hc        1 MOL      0.062487
    119 H55        -5.3720    4.6740    4.3140 hc        1 MOL      0.062487
    120 H56        -4.1170    4.0920    5.4100 hc        1 MOL      0.062487
    121 N11        -4.6030    2.8340   -0.4720 n         1 MOL     -0.303621
    122 C40        -5.6060    2.5570   -1.5010 c3        1 MOL     -0.122433
    123 C41        -5.6010    0.9700   -1.6700 c         1 MOL      0.619398
    124 O16        -5.2720    0.1720   -0.7860 o         1 MOL     -0.482230
    125 C42        -6.9780    3.0680   -1.0690 c3        1 MOL      0.030287
    126 O17        -7.3340    2.3480    0.0820 oh        1 MOL     -0.590585
    127 H57        -4.4250    2.1090    0.2120 hn        1 MOL      0.237007
    128 H58        -5.2920    3.0460   -2.4200 h1        1 MOL      0.091875
    129 H59        -7.7880    2.8990   -1.7790 h1        1 MOL      0.060260
    130 H60        -6.9600    4.1180   -0.7890 h1        1 MOL      0.060260
    131 H61        -8.1910    2.7370    0.3040 ho        1 MOL      0.412615
    132 N12        -5.8230    0.5720   -2.8790 n         1 MOL     -0.387013
    133 C43        -5.4410   -0.7910   -3.3740 c3        1 MOL     -0.187235
    134 C44        -6.0500   -1.9970   -2.7060 c         1 MOL      0.504734
    135 O18        -5.4140   -3.0820   -2.7840 o         1 MOL     -0.428773
    136 C45        -3.8420   -0.7030   -3.4250 c3        1 MOL     -0.233013
    137 H62        -6.2120    1.2360   -3.5430 hn        1 MOL      0.284890
    138 H63        -5.7830   -0.8790   -4.4060 h1        1 MOL      0.158033
    139 H64        -3.4420   -0.6870   -2.4140 hc        1 MOL      0.103000
    140 H65        -3.3800   -1.5420   -3.9490 hc        1 MOL      0.103000
    141 H66        -3.4080    0.1710   -3.8990 hc        1 MOL      0.103000
    142 N13        -7.2850   -1.8060   -2.1950 n         1 MOL     -0.431953
    143 C46        -7.9690   -2.8830   -1.5200 c3        1 MOL      0.179877
    144 C47        -7.1250   -3.5800   -0.3730 c         1 MOL      0.294038
    145 O19        -7.2650   -4.7590   -0.2970 o         1 MOL     -0.424957
    146 C48        -8.6460   -3.8370   -2.4920 c3        1 MOL     -0.316825
    147 H67        -7.6530   -0.8790   -2.0650 hn        1 MOL      0.271511
    148 H68        -8.8510   -2.4290   -1.0690 h1        1 MOL      0.052392
    149 H69        -9.1770   -4.5930   -1.9030 hc        1 MOL      0.091578
    150 H70        -9.3720   -3.3960   -3.1810 hc        1 MOL      0.091578
    151 H71        -7.9840   -4.1740   -3.2880 hc        1 MOL      0.091578
    152 N14        -6.2610   -2.8910    0.3660 n         1 MOL     -0.188771
    153 C49        -5.2640   -3.5190    1.2350 c3        1 MOL     -0.310038
    154 C50        -5.9170   -4.0110    2.6120 c         1 MOL      0.485775
    155 O20        -5.6230   -5.1460    3.0260 o         1 MOL     -0.531221
    156 C51        -4.1660   -2.6140    1.4990 c3        1 MOL      0.143667
    157 C52        -2.9190   -3.3520    2.0390 c3        1 MOL     -0.298456
    158 C53        -2.0750   -4.0170    0.8890 c         1 MOL      0.792954
    159 O21        -1.0210   -3.4290    0.4720 o         1 MOL     -0.787810
    160 O22        -2.2560   -5.1800    0.4150 o         1 MOL     -0.787810
    161 H72        -6.2160   -1.8950    0.1960 hn        1 MOL      0.182833
    162 H73        -4.8740   -4.3690    0.6810 h1        1 MOL      0.207213
    163 H74        -4.5000   -1.8610    2.2100 hc        1 MOL      0.018037
    164 H75        -3.8780   -1.9780    0.6650 hc        1 MOL      0.018037
    165 H76        -3.1320   -4.0890    2.8080 hc        1 MOL      0.074283
    166 H77        -2.3000   -2.5520    2.4480 hc        1 MOL      0.074283
    167 N15        -6.9220   -3.3450    3.1350 n         1 MOL     -0.205369
    168 C54        -7.7610   -3.5720    4.3810 c3        1 MOL     -0.187051
    169 H78        -8.7760   -3.8450    4.0900 h1        1 MOL      0.101825
    170 H79        -7.3250   -4.3780    4.9710 h1        1 MOL      0.101825
    171 H80        -7.7860   -2.6580    4.9740 h1        1 MOL      0.101825
    172 H81        -7.1620   -2.5300    2.5670 hn        1 MOL      0.182381
    173 Ca1        -0.4310   -5.3920   -1.2580 Ca        1 MOL      1.757571
    174 O23        -0.5570   -7.7910    0.8120 oh        1 MOL     -0.831171
    175 H82        -1.2980   -8.3750    0.9510 ho        1 MOL      0.410928
    176 H83        -0.6470   -7.1140    1.4810 ho        1 MOL      0.410928
    177 O24         1.6310   -5.6470    0.5270 oh        1 MOL     -0.831171
    178 H84         2.4880   -5.4640    0.1400 ho        1 MOL      0.410928
    179 H85         1.7900   -6.4120    1.0820 ho        1 MOL      0.410928
    180 O25         1.1010   -7.4110   -2.1320 oh        1 MOL     -0.831171
    181 H86         0.6240   -8.2160   -2.2920 ho        1 MOL      0.410928
    182 H87         1.9270   -7.6980   -1.7270 ho        1 MOL      0.410928
    183 O26        -1.8820   -3.5820   -2.7010 oh        1 MOL     -0.831171
    184 H88        -2.7930   -3.3330   -2.5720 ho        1 MOL      0.410928
    185 H89        -1.4190   -2.7500   -2.7810 ho        1 MOL      0.410928
    186 O27        -2.1230   -7.4190   -1.5210 oh        1 MOL     -0.831171
    187 H90        -3.0750   -7.3510   -1.5100 ho        1 MOL      0.410928
    188 H91        -1.9400   -8.3560   -1.4500 ho        1 MOL      0.410928
    189 O28        -0.8610   -5.9680   -3.8540 oh        1 MOL     -0.831171
    190 H92        -1.0220   -5.5440   -4.6930 ho        1 MOL      0.410928
    191 H93        -1.0060   -6.8950   -4.0120 ho        1 MOL      0.410928
@<TRIPOS>BOND
     1    1    2 1   
     2    1    4 1   
     3    1    5 1   
     4    1    6 1   
     5    2    3 2   
     6    2    7 1   
     7    7    8 1   
     8    7   15 1   
     9    8    9 1   
    10    8   11 1   
    11    8   16 1   
    12    9   10 2   
    13    9   19 1   
    14   11   12 1   
    15   11   17 1   
    16   11   18 1   
    17   12   13 1   
    18   12   14 1   
    19   19   20 1   
    20   19   28 1   
    21   20   21 1   
    22   20   23 1   
    23   20   29 1   
    24   21   22 2   
    25   21   41 1   
    26   23   24 1   
    27   23   30 1   
    28   23   31 1   
    29   24   25 1   
    30   24   32 1   
    31   24   33 1   
    32   25   26 1   
    33   25   34 1   
    34   25   35 1   
    35   26   27 1   
    36   26   36 1   
    37   26   37 1   
    38   27   38 1   
    39   27   39 1   
    40   27   40 1   
    41   41   42 1   
    42   41   49 1   
    43   42   43 1   
    44   42   45 1   
    45   42   50 1   
    46   43   44 2   
    47   43   53 1   
    48   45   46 1   
    49   45   51 1   
    50   45   52 1   
    51   46   47 1   
    52   46   48 1   
    53   53   54 1   
    54   53   57 1   
    55   54   55 1   
    56   54   58 1   
    57   54   59 1   
    58   55   56 2   
    59   55   60 1   
    60   60   61 1   
    61   60   68 1   
    62   61   62 1   
    63   61   64 1   
    64   61   69 1   
    65   62   63 2   
    66   62   74 1   
    67   64   65 1   
    68   64   70 1   
    69   64   71 1   
    70   65   66 1   
    71   65   67 2   
    72   66   72 1   
    73   66   73 1   
    74   74   75 1   
    75   74   78 1   
    76   75   76 1   
    77   75   79 1   
    78   75   80 1   
    79   76   77 2   
    80   76   81 1   
    81   81   82 1   
    82   81   93 1   
    83   82   83 1   
    84   82   85 1   
    85   82   94 1   
    86   83   84 2   
    87   83  102 1   
    88   85   86 1   
    89   85   95 1   
    90   85   96 1   
    91   86   87 ar  
    92   86   88 ar  
    93   87   89 ar  
    94   87   97 1   
    95   88   90 ar  
    96   88   98 1   
    97   89   91 ar  
    98   89   99 1   
    99   90   91 ar  
   100   90  100 1   
   101   91   92 1   
   102   92  101 1   
   103  102  103 1   
   104  102  110 1   
   105  103  104 1   
   106  103  106 1   
   107  103  111 1   
   108  104  105 2   
   109  104  121 1   
   110  106  107 1   
   111  106  108 1   
   112  106  112 1   
   113  107  109 1   
   114  107  113 1   
   115  107  114 1   
   116  108  115 1   
   117  108  116 1   
   118  108  117 1   
   119  109  118 1   
   120  109  119 1   
   121  109  120 1   
   122  121  122 1   
   123  121  127 1   
   124  122  123 1   
   125  122  125 1   
   126  122  128 1   
   127  123  124 2   
   128  123  132 1   
   129  125  126 1   
   130  125  129 1   
   131  125  130 1   
   132  126  131 1   
   133  132  133 1   
   134  132  137 1   
   135  133  134 1   
   136  133  136 1   
   137  133  138 1   
   138  134  135 2   
   139  134  142 1   
   140  136  139 1   
   141  136  140 1   
   142  136  141 1   
   143  142  143 1   
   144  142  147 1   
   145  143  144 1   
   146  143  146 1   
   147  143  148 1   
   148  144  145 2   
   149  144  152 1   
   150  146  149 1   
   151  146  150 1   
   152  146  151 1   
   153  152  153 1   
   154  152  161 1   
   155  153  154 1   
   156  153  156 1   
   157  153  162 1   
   158  154  155 2   
   159  154  167 1   
   160  156  157 1   
   161  156  163 1   
   162  156  164 1   
   163  157  158 1   
   164  157  165 1   
   165  157  166 1   
   166  158  159 1   
   167  158  160 1   
   168  167  168 1   
   169  167  172 1   
   170  168  169 1   
   171  168  170 1   
   172  168  171 1   
   173  174  175 1   
   174  174  176 1   
   175  177  178 1   
   176  177  179 1   
   177  180  181 1   
   178  180  182 1   
   179  183  184 1   
   180  183  185 1   
   181  186  187 1   
   182  186  188 1   
   183  189  190 1   
   184  189  191 1   
@<TRIPOS>SUBSTRUCTURE
     1 MOL         1 TEMP              0 ****  ****    0 ROOT
