@<TRIPOS>MOLECULE
MOL
  178   175     1     0     0
SMALL
resp


@<TRIPOS>ATOM
      1 C1          3.8050   -1.4470    3.1940 c3        1 MOL     -0.615135
      2 C2          4.9870   -0.5810    2.6970 c         1 MOL      0.818603
      3 O1          4.8460    0.4850    2.1240 o         1 MOL     -0.612224
      4 H1          3.8870   -1.5860    4.2720 hc        1 MOL      0.174021
      5 H2          2.8650   -0.9470    2.9620 hc        1 MOL      0.174021
      6 H3          3.8320   -2.4180    2.7010 hc        1 MOL      0.174021
      7 N1          6.2270   -1.1340    2.9290 n         1 MOL     -0.733274
      8 C3          7.4820   -0.3180    2.9090 c3        1 MOL      0.375992
      9 C4          8.2100   -0.6950    1.6240 c         1 MOL      0.428166
     10 O2          8.3430   -1.9100    1.3200 o         1 MOL     -0.535954
     11 C5          8.3020   -0.7240    4.0970 c3        1 MOL     -0.312518
     12 C6          9.6180   -0.0570    4.1520 c         1 MOL      0.836817
     13 O3         10.0420    0.5990    3.2280 o         1 MOL     -0.776598
     14 O4         10.1480   -0.1750    5.2570 o         1 MOL     -0.776598
     15 H4          6.3340   -2.1110    3.1630 hn        1 MOL      0.321343
     16 H5          7.3000    0.7610    2.9440 h1        1 MOL     -0.002849
     17 H6          8.5450   -1.7860    4.0040 hc        1 MOL      0.047658
     18 H7          7.7660   -0.4570    5.0170 hc        1 MOL      0.047658
     19 N2          8.7620    0.2100    0.7870 n         1 MOL     -0.250141
     20 C7          8.9360   -0.1210   -0.6470 c3        1 MOL     -0.002025
     21 C8          7.6670   -0.6580   -1.3840 c         1 MOL      0.595609
     22 O5          7.7920   -1.1640   -2.4860 o         1 MOL     -0.593134
     23 C9          9.4650    1.1260   -1.3430 c3        1 MOL     -0.186436
     24 H8          8.7090    1.2000    0.9590 hn        1 MOL      0.217666
     25 H9          9.6470   -0.9430   -0.6330 h1        1 MOL      0.090376
     26 H10         8.6660    1.8550   -1.2440 hc        1 MOL      0.051512
     27 H11        10.3920    1.5360   -0.9410 hc        1 MOL      0.051512
     28 H12         9.6650    1.0670   -2.4170 hc        1 MOL      0.051512
     29 N3          6.4470   -0.5160   -0.8570 n         1 MOL     -0.459409
     30 C10         5.1210   -1.0970   -1.2160 c3        1 MOL      0.041412
     31 C11         4.6200   -0.8040   -2.7030 c         1 MOL      0.631715
     32 O6          3.8730   -1.6010   -3.2570 o         1 MOL     -0.575086
     33 C12         5.1430   -2.5970   -0.8830 c3        1 MOL     -0.046796
     34 C13         3.7370   -3.2010   -0.9390 c         1 MOL      0.768770
     35 O7          3.5250   -4.2990   -1.4650 o         1 MOL     -0.802379
     36 O8          2.8300   -2.7410   -0.2680 o         1 MOL     -0.802379
     37 H13         6.4780    0.1340   -0.0820 hn        1 MOL      0.175392
     38 H14         4.3290   -0.6730   -0.6050 h1        1 MOL      0.127208
     39 H15         5.4760   -2.7730    0.1410 hc        1 MOL      0.021142
     40 H16         5.7670   -3.0920   -1.6190 hc        1 MOL      0.021142
     41 N4          5.0870    0.2110   -3.3700 n         1 MOL     -0.230153
     42 C14         4.6130    0.5430   -4.7700 c3        1 MOL     -0.431592
     43 C15         3.2600    1.2100   -4.7920 c         1 MOL      0.604034
     44 O9          2.7420    1.4270   -5.8740 o         1 MOL     -0.574764
     45 H17         5.7970    0.7940   -2.9560 hn        1 MOL      0.243996
     46 H18         4.6270   -0.3440   -5.3910 h1        1 MOL      0.183272
     47 H19         5.2770    1.3490   -5.0850 h1        1 MOL      0.183272
     48 N5          2.6430    1.5380   -3.6650 n         1 MOL     -0.239331
     49 C16         1.3830    2.2100   -3.5650 c3        1 MOL      0.024090
     50 C17         1.6340    3.3750   -2.5320 c         1 MOL      0.329908
     51 O10         2.2740    3.2150   -1.4750 o         1 MOL     -0.429713
     52 C18         0.2840    1.3220   -3.0100 c3        1 MOL     -0.153353
     53 C19        -1.1010    1.9500   -3.0210 c         1 MOL      0.474524
     54 N6         -1.5990    2.1730   -1.8410 n         1 MOL     -0.202453
     55 O11        -1.6970    2.1020   -4.0560 o         1 MOL     -0.543682
     56 H20         3.0800    1.3170   -2.7830 hn        1 MOL      0.093010
     57 H21         1.0640    2.7170   -4.4710 h1        1 MOL      0.054494
     58 H22         0.7250    0.9420   -2.0890 hc        1 MOL      0.121084
     59 H23         0.1870    0.4420   -3.6570 hc        1 MOL      0.121084
     60 H24        -1.0630    2.1180   -0.9870 hn        1 MOL      0.143846
     61 H25        -2.4220    2.7670   -1.7860 hn        1 MOL      0.143846
     62 N7          0.8920    4.5160   -2.7070 n         1 MOL     -0.324399
     63 C20         0.8070    5.5990   -1.7320 c3        1 MOL     -0.010946
     64 C21        -0.5780    5.8270   -1.1360 c         1 MOL      0.599391
     65 O12        -1.5280    5.2090   -1.5880 o         1 MOL     -0.493871
     66 H26         0.3890    4.5180   -3.5880 hn        1 MOL      0.258673
     67 H27         1.0420    6.5510   -2.1920 h1        1 MOL      0.044553
     68 H28         1.4810    5.3340   -0.9130 h1        1 MOL      0.044553
     69 N8         -0.7490    6.6330   -0.0780 n         1 MOL     -0.311075
     70 C22        -2.0630    6.9030    0.5000 c3        1 MOL     -0.616602
     71 C23        -2.6370    5.7340    1.3940 c         1 MOL      0.654753
     72 O13        -3.7560    5.7690    1.9000 o         1 MOL     -0.563953
     73 C24        -2.1720    8.2630    1.2570 c3        1 MOL      0.652472
     74 C25        -1.2100    8.3590    2.4500 c3        1 MOL     -0.398362
     75 O14        -1.9960    9.4070    0.3700 oh        1 MOL     -0.665232
     76 H29         0.0260    7.2310    0.1790 hn        1 MOL      0.230339
     77 H30        -2.7470    6.9680   -0.3360 h1        1 MOL      0.205097
     78 H31        -3.1920    8.3570    1.6310 h1        1 MOL      0.012621
     79 H32        -1.2440    9.1870   -0.1850 ho        1 MOL      0.384594
     80 H33        -1.2910    9.2460    3.0690 hc        1 MOL      0.094562
     81 H34        -1.3810    7.4170    2.9900 hc        1 MOL      0.094562
     82 H35        -0.2010    8.3750    2.0210 hc        1 MOL      0.094562
     83 N9         -1.7800    4.7460    1.5760 n         1 MOL     -0.371210
     84 C26        -1.9160    3.4450    2.4020 c3        1 MOL     -0.111117
     85 C27        -1.4430    2.2950    1.4820 c         1 MOL      0.867789
     86 O15        -0.4880    2.4760    0.8150 o         1 MOL     -0.505560
     87 C28        -1.1430    3.4900    3.7510 c3        1 MOL      0.082994
     88 C29        -1.6450    4.7010    4.6030 c3        1 MOL     -0.150037
     89 C30        -1.2080    2.2250    4.4980 c3        1 MOL     -0.029882
     90 C31        -3.0740    4.5290    5.1640 c3        1 MOL     -0.308438
     91 H36        -0.9580    4.8330    0.9940 hn        1 MOL      0.219288
     92 H37        -2.9770    3.3020    2.6390 h1        1 MOL      0.127458
     93 H38        -0.0980    3.6280    3.4730 hc        1 MOL      0.023316
     94 H39        -1.6250    5.6370    4.0400 hc        1 MOL      0.072453
     95 H40        -1.0130    4.7680    5.4840 hc        1 MOL      0.072453
     96 H41        -1.1280    2.4030    5.5650 hc        1 MOL      0.013548
     97 H42        -2.1890    1.7610    4.3970 hc        1 MOL      0.013548
     98 H43        -0.4230    1.5950    4.0900 hc        1 MOL      0.013548
     99 H44        -3.3220    5.4990    5.6020 hc        1 MOL      0.087783
    100 H45        -3.8320    4.1440    4.4870 hc        1 MOL      0.087783
    101 H46        -2.9840    3.9700    6.1010 hc        1 MOL      0.087783
    102 N10        -2.1280    1.1670    1.5330 n         1 MOL     -1.027252
    103 C32        -1.9360    0.0620    0.5920 c3        1 MOL      0.644846
    104 C33        -3.1840   -0.4850   -0.1250 c         1 MOL      0.289632
    105 O16        -3.1010   -1.3870   -0.9880 o         1 MOL     -0.477643
    106 C34        -1.2440   -1.0690    1.3780 c3        1 MOL     -0.085121
    107 C35        -0.4530   -2.0660    0.5310 c         1 MOL      0.767713
    108 O17        -0.0660   -1.7940   -0.5930 o         1 MOL     -0.760308
    109 O18        -0.1270   -3.2050    1.0060 o         1 MOL     -0.760308
    110 H47        -2.8040    1.0510    2.2690 hn        1 MOL      0.417349
    111 H48        -1.3630    0.3620   -0.2790 h1        1 MOL     -0.125553
    112 H49        -2.0210   -1.6420    1.8800 hc        1 MOL     -0.012922
    113 H50        -0.5750   -0.7220    2.1660 hc        1 MOL     -0.012922
    114 N11        -4.3100    0.0840    0.2000 n         1 MOL     -0.367014
    115 C36        -5.5910   -0.1990   -0.5230 c3        1 MOL      0.447416
    116 C37        -6.4530   -1.2890    0.1890 c         1 MOL      0.079526
    117 O19        -6.5790   -1.2190    1.3960 o         1 MOL     -0.434182
    118 C38        -6.4580    1.0320   -0.7420 c3        1 MOL     -0.168734
    119 C39        -5.7390    2.1370   -1.4480 ca        1 MOL     -0.064749
    120 C40        -5.0530    3.1520   -0.7730 ca        1 MOL     -0.070747
    121 C41        -5.6770    2.1580   -2.8480 ca        1 MOL     -0.070747
    122 C42        -4.3190    4.1520   -1.4120 ca        1 MOL     -0.150368
    123 C43        -4.9270    3.1740   -3.5230 ca        1 MOL     -0.150368
    124 C44        -4.2340    4.1460   -2.8220 ca        1 MOL     -0.096595
    125 H51        -4.3260    0.6340    1.0520 hn        1 MOL      0.210976
    126 H52        -5.3820   -0.5930   -1.5240 h1        1 MOL     -0.026830
    127 H53        -6.8210    1.3600    0.2250 hc        1 MOL      0.073498
    128 H54        -7.2600    0.5980   -1.3340 hc        1 MOL      0.073498
    129 H55        -4.9570    3.0550    0.3030 ha        1 MOL      0.075569
    130 H56        -6.2420    1.3970   -3.3710 ha        1 MOL      0.075569
    131 H57        -3.7980    4.8740   -0.8010 ha        1 MOL      0.130411
    132 H58        -4.8560    3.0550   -4.5930 ha        1 MOL      0.130411
    133 H59        -3.7000    4.9410   -3.3270 ha        1 MOL      0.115167
    134 N12        -6.9850   -2.2990   -0.5120 n         1 MOL     -0.038319
    135 C45        -7.7980   -3.4260    0.0890 c3        1 MOL      0.202408
    136 C46        -6.9070   -4.2390    1.0870 c         1 MOL      0.256619
    137 O20        -7.4020   -4.6410    2.1260 o         1 MOL     -0.507587
    138 C47        -8.3050   -4.2780   -1.0100 c3        1 MOL      0.095062
    139 C48        -8.0850   -3.3880   -2.3200 c3        1 MOL     -0.161748
    140 C49        -7.0830   -2.2400   -1.9600 c3        1 MOL     -0.180059
    141 H60        -8.6840   -3.0800    0.6200 h1        1 MOL      0.014714
    142 H61        -7.7510   -5.2070   -1.1660 hc        1 MOL     -0.005649
    143 H62        -9.3120   -4.6430   -0.8320 hc        1 MOL     -0.005649
    144 H63        -7.8340   -3.9440   -3.2190 hc        1 MOL      0.054598
    145 H64        -9.0620   -2.9310   -2.4120 hc        1 MOL      0.054598
    146 H65        -6.1660   -2.5380   -2.4740 h1        1 MOL      0.115904
    147 H66        -7.5130   -1.3180   -2.3670 h1        1 MOL      0.115904
    148 N13        -5.6050   -4.3800    0.8160 n         1 MOL     -0.156307
    149 C50        -4.7340   -5.0110    1.7200 c3        1 MOL     -0.148851
    150 C51        -4.6030   -4.3620    3.0630 c         1 MOL      0.432169
    151 O21        -4.0730   -4.9930    3.9680 o         1 MOL     -0.542270
    152 C52        -3.2810   -5.0040    1.1630 c3        1 MOL      0.229856
    153 C53        -3.0750   -6.0190    0.0620 c3        1 MOL     -0.265992
    154 C54        -1.6680   -5.7480   -0.5300 c         1 MOL      0.793797
    155 O22        -1.4290   -4.8280   -1.3740 o         1 MOL     -0.765456
    156 O23        -0.7340   -6.3590   -0.0530 o         1 MOL     -0.765456
    157 H67        -5.2230   -4.1160   -0.0830 hn        1 MOL      0.229029
    158 H68        -5.1060   -6.0290    1.8640 h1        1 MOL      0.116173
    159 H69        -2.5610   -5.0530    1.9890 hc        1 MOL     -0.007046
    160 H70        -3.1610   -4.0060    0.7420 hc        1 MOL     -0.007046
    161 H71        -3.8110   -5.8680   -0.7260 hc        1 MOL      0.015365
    162 H72        -3.1610   -7.0430    0.4190 hc        1 MOL      0.015365
    163 N14        -5.0810   -3.0950    3.2730 n         1 MOL     -0.065364
    164 C55        -4.8270   -2.3530    4.5350 c3        1 MOL     -0.244036
    165 H73        -3.8950   -2.7020    4.9790 h1        1 MOL      0.086136
    166 H74        -4.7490   -1.2870    4.3200 h1        1 MOL      0.086136
    167 H75        -5.6470   -2.5250    5.2310 h1        1 MOL      0.086136
    168 H76        -5.5510   -2.5980    2.5330 hn        1 MOL      0.124648
    169 Ca1         1.0150   -4.3750   -0.8680 Ca        1 MOL      1.801799
    170 O24         2.5470   -5.6700    0.9230 oh        1 MOL     -0.844413
    171 H77         2.9190   -5.4210    1.7690 ho        1 MOL      0.408149
    172 H78         3.2200   -6.2000    0.5040 ho        1 MOL      0.408149
    173 O25         1.1930   -6.5130   -2.7030 oh        1 MOL     -0.844413
    174 H79         2.1060   -6.5220   -2.9770 ho        1 MOL      0.408149
    175 H80         0.8580   -7.3730   -2.9280 ho        1 MOL      0.408149
    176 O26         1.4450   -3.0080   -3.3080 oh        1 MOL     -0.844413
    177 H81         2.2570   -2.5080   -3.2520 ho        1 MOL      0.408149
    178 H82         1.1160   -2.8460   -4.1960 ho        1 MOL      0.408149
@<TRIPOS>BOND
     1    1    2 1   
     2    1    4 1   
     3    1    5 1   
     4    1    6 1   
     5    2    3 2   
     6    2    7 1   
     7    7    8 1   
     8    7   15 1   
     9    8    9 1   
    10    8   11 1   
    11    8   16 1   
    12    9   10 2   
    13    9   19 1   
    14   11   12 1   
    15   11   17 1   
    16   11   18 1   
    17   12   13 1   
    18   12   14 1   
    19   19   20 1   
    20   19   24 1   
    21   20   21 1   
    22   20   23 1   
    23   20   25 1   
    24   21   22 2   
    25   21   29 1   
    26   23   26 1   
    27   23   27 1   
    28   23   28 1   
    29   29   30 1   
    30   29   37 1   
    31   30   31 1   
    32   30   33 1   
    33   30   38 1   
    34   31   32 2   
    35   31   41 1   
    36   33   34 1   
    37   33   39 1   
    38   33   40 1   
    39   34   35 1   
    40   34   36 1   
    41   41   42 1   
    42   41   45 1   
    43   42   43 1   
    44   42   46 1   
    45   42   47 1   
    46   43   44 2   
    47   43   48 1   
    48   48   49 1   
    49   48   56 1   
    50   49   50 1   
    51   49   52 1   
    52   49   57 1   
    53   50   51 2   
    54   50   62 1   
    55   52   53 1   
    56   52   58 1   
    57   52   59 1   
    58   53   54 1   
    59   53   55 2   
    60   54   60 1   
    61   54   61 1   
    62   62   63 1   
    63   62   66 1   
    64   63   64 1   
    65   63   67 1   
    66   63   68 1   
    67   64   65 2   
    68   64   69 1   
    69   69   70 1   
    70   69   76 1   
    71   70   71 1   
    72   70   73 1   
    73   70   77 1   
    74   71   72 2   
    75   71   83 1   
    76   73   74 1   
    77   73   75 1   
    78   73   78 1   
    79   74   80 1   
    80   74   81 1   
    81   74   82 1   
    82   75   79 1   
    83   83   84 1   
    84   83   91 1   
    85   84   85 1   
    86   84   87 1   
    87   84   92 1   
    88   85   86 2   
    89   85  102 1   
    90   87   88 1   
    91   87   89 1   
    92   87   93 1   
    93   88   90 1   
    94   88   94 1   
    95   88   95 1   
    96   89   96 1   
    97   89   97 1   
    98   89   98 1   
    99   90   99 1   
   100   90  100 1   
   101   90  101 1   
   102  102  103 1   
   103  102  110 1   
   104  103  104 1   
   105  103  106 1   
   106  103  111 1   
   107  104  105 2   
   108  104  114 1   
   109  106  107 1   
   110  106  112 1   
   111  106  113 1   
   112  107  108 1   
   113  107  109 1   
   114  114  115 1   
   115  114  125 1   
   116  115  116 1   
   117  115  118 1   
   118  115  126 1   
   119  116  117 2   
   120  116  134 1   
   121  118  119 1   
   122  118  127 1   
   123  118  128 1   
   124  119  120 ar  
   125  119  121 ar  
   126  120  122 ar  
   127  120  129 1   
   128  121  123 ar  
   129  121  130 1   
   130  122  124 ar  
   131  122  131 1   
   132  123  124 ar  
   133  123  132 1   
   134  124  133 1   
   135  134  135 1   
   136  134  140 1   
   137  135  136 1   
   138  135  138 1   
   139  135  141 1   
   140  136  137 2   
   141  136  148 1   
   142  138  139 1   
   143  138  142 1   
   144  138  143 1   
   145  139  140 1   
   146  139  144 1   
   147  139  145 1   
   148  140  146 1   
   149  140  147 1   
   150  148  149 1   
   151  148  157 1   
   152  149  150 1   
   153  149  152 1   
   154  149  158 1   
   155  150  151 2   
   156  150  163 1   
   157  152  153 1   
   158  152  159 1   
   159  152  160 1   
   160  153  154 1   
   161  153  161 1   
   162  153  162 1   
   163  154  155 1   
   164  154  156 1   
   165  163  164 1   
   166  163  168 1   
   167  164  165 1   
   168  164  166 1   
   169  164  167 1   
   170  170  171 1   
   171  170  172 1   
   172  173  174 1   
   173  173  175 1   
   174  176  177 1   
   175  176  178 1   
@<TRIPOS>SUBSTRUCTURE
     1 MOL         1 TEMP              0 ****  ****    0 ROOT
