@<TRIPOS>MOLECULE
MOL
  198   191     1     0     0
SMALL
resp


@<TRIPOS>ATOM
      1 C1          5.9480    9.1300   -2.4020 c3        1 MOL     -0.356330
      2 C2          5.6510    7.7400   -1.8570 c         1 MOL      0.707539
      3 O1          4.6600    7.4790   -1.2100 o         1 MOL     -0.608308
      4 H1          5.0110    9.6470   -2.6070 hc        1 MOL      0.091057
      5 H2          6.5200    9.6940   -1.6660 hc        1 MOL      0.091057
      6 H3          6.5250    9.0440   -3.3230 hc        1 MOL      0.091057
      7 N1          6.5750    6.7920   -2.0480 n         1 MOL     -0.540708
      8 C3          6.4310    5.3670   -1.8790 c3        1 MOL      0.078240
      9 C4          6.2260    5.0010   -0.4010 c         1 MOL      0.537563
     10 O2          6.9920    5.2800    0.5040 o         1 MOL     -0.476252
     11 C5          7.6520    4.6960   -2.4640 c3        1 MOL     -0.314846
     12 C6          7.5500    3.1360   -2.4730 c         1 MOL      0.760168
     13 O3          8.5010    2.4960   -2.8050 o         1 MOL     -0.671843
     14 O4          6.4350    2.5970   -2.2910 o         1 MOL     -0.671843
     15 H4          7.1970    7.1450   -2.7670 hn        1 MOL      0.287558
     16 H5          5.6800    4.9770   -2.5790 h1        1 MOL      0.080042
     17 H6          8.5560    5.0840   -1.9930 hc        1 MOL      0.075221
     18 H7          7.6860    4.9480   -3.5220 hc        1 MOL      0.075221
     19 N2          5.0360    4.3710   -0.1450 n         1 MOL     -0.285744
     20 C7          4.4550    4.3330    1.2020 c3        1 MOL      0.036547
     21 C8          5.2330    3.4290    2.2160 c         1 MOL      0.387198
     22 O5          5.4570    3.8210    3.3550 o         1 MOL     -0.601641
     23 C9          2.9950    3.9410    1.0460 c3        1 MOL     -0.049792
     24 C10         1.9860    5.0530    1.2210 c3        1 MOL     -0.294036
     25 C11         1.9600    5.7030    2.5530 c3        1 MOL     -0.153127
     26 C12         1.5010    4.8880    3.7440 c3        1 MOL     -0.007721
     27 N3          1.9520    5.3110    5.1260 n4        1 MOL     -0.316154
     28 H8          4.4280    3.9940   -0.8550 hn        1 MOL      0.133335
     29 H9          4.4970    5.3290    1.6670 h1        1 MOL      0.081648
     30 H10         2.7640    3.1400    1.7560 hc        1 MOL      0.103593
     31 H11         2.7860    3.5440    0.0470 hc        1 MOL      0.103593
     32 H12         1.0850    4.5960    0.8230 hc        1 MOL      0.140355
     33 H13         2.1780    5.8410    0.4910 hc        1 MOL      0.140355
     34 H14         1.3080    6.5660    2.4080 hc        1 MOL      0.103970
     35 H15         2.8350    6.2820    2.8720 hc        1 MOL      0.103970
     36 H16         1.8900    3.8710    3.6670 hx        1 MOL      0.089681
     37 H17         0.4110    4.8550    3.6570 hx        1 MOL      0.089681
     38 H18         1.5730    6.2180    5.3610 hn        1 MOL      0.322224
     39 H19         1.7540    4.6130    5.8290 hn        1 MOL      0.322224
     40 H20         2.9480    5.4160    5.0420 hn        1 MOL      0.322224
     41 N4          5.7150    2.2370    1.9060 n         1 MOL     -0.109746
     42 C13         5.4380    1.4240    0.6880 c3        1 MOL     -0.407913
     43 C14         6.6560    0.5200    0.5100 c         1 MOL      0.477299
     44 O6          7.1100   -0.1180    1.4000 o         1 MOL     -0.522130
     45 C15         4.2430    0.5070    0.9350 c3        1 MOL      0.053557
     46 C16         4.0100   -0.5350   -0.1370 c         1 MOL      0.263961
     47 O7          3.7960   -0.1840   -1.3350 o         1 MOL     -0.532115
     48 O8          4.0170   -1.7900    0.1360 o         1 MOL     -0.532115
     49 H21         6.2660    1.8050    2.6330 hn        1 MOL      0.236824
     50 H22         5.3400    1.9850   -0.2440 h1        1 MOL      0.207379
     51 H23         3.3830    1.1480    1.0740 hc        1 MOL     -0.051738
     52 H24         4.3900   -0.0150    1.8750 hc        1 MOL     -0.051738
     53 N5          7.0370    0.3240   -0.7490 n         1 MOL     -0.081398
     54 C17         8.1960   -0.4690   -1.1170 c3        1 MOL     -0.318323
     55 C18         8.0050   -2.0190   -1.1130 c         1 MOL      0.415575
     56 O9          8.9570   -2.6500   -1.4880 o         1 MOL     -0.507282
     57 H25         6.6420    0.9550   -1.4320 hn        1 MOL      0.194412
     58 H26         9.0100   -0.2030   -0.4410 h1        1 MOL      0.164177
     59 H27         8.6490   -0.2250   -2.0770 h1        1 MOL      0.164177
     60 N6          6.8590   -2.6920   -0.8210 n         1 MOL     -0.016514
     61 C19         6.4860   -4.0370   -1.2510 c3        1 MOL     -0.238153
     62 C20         6.8700   -4.3010   -2.7530 c         1 MOL      0.665407
     63 O10         7.6120   -5.1880   -3.1130 o         1 MOL     -0.576864
     64 C21         6.9940   -5.1050   -0.3260 c3        1 MOL      0.077710
     65 C22         6.7320   -4.8060    1.1570 c         1 MOL      0.482627
     66 O11         7.6520   -4.9330    1.9780 o         1 MOL     -0.615585
     67 O12         5.5920   -4.5430    1.5370 o         1 MOL     -0.615585
     68 H28         6.1670   -2.1690   -0.3070 hn        1 MOL      0.146985
     69 H29         5.3970   -4.1390   -1.2120 h1        1 MOL      0.153828
     70 H30         8.0570   -5.3050   -0.4450 hc        1 MOL      0.003687
     71 H31         6.6180   -6.1050   -0.5310 hc        1 MOL      0.003687
     72 N7          6.2730   -3.6730   -3.7180 n         1 MOL     -0.518931
     73 C23         5.0760   -2.8310   -3.5610 c3        1 MOL      0.008666
     74 C24         3.8200   -3.5770   -3.1470 c         1 MOL      0.447553
     75 O13         3.4930   -4.6590   -3.7170 o         1 MOL     -0.580425
     76 H32         6.5980   -3.7740   -4.6780 hn        1 MOL      0.328729
     77 H33         4.7960   -2.1970   -4.4010 h1        1 MOL      0.076454
     78 H34         5.1540   -2.0840   -2.7740 h1        1 MOL      0.076454
     79 N8          3.0940   -3.1830   -2.1120 n         1 MOL     -0.267979
     80 C25         1.8210   -3.7440   -1.6730 c3        1 MOL     -0.048686
     81 C26         1.0800   -2.7520   -0.7300 c         1 MOL      0.447177
     82 O14         1.3700   -2.7050    0.4500 o         1 MOL     -0.328617
     83 C27         2.1280   -5.0500   -0.9620 c3        1 MOL      0.359656
     84 C28         1.0160   -5.8050   -0.2340 c3        1 MOL     -0.301699
     85 O15         3.1300   -4.9160    0.0550 oh        1 MOL     -0.735175
     86 H35         3.5080   -2.4600   -1.5340 hn        1 MOL      0.144420
     87 H36         1.1380   -3.9510   -2.5030 h1        1 MOL      0.070082
     88 H37         2.4690   -5.7560   -1.7160 h1        1 MOL      0.049783
     89 H38         3.6880   -5.6880   -0.0020 ho        1 MOL      0.401967
     90 H39         0.4490   -5.0970    0.3680 hc        1 MOL      0.058261
     91 H40         0.3070   -6.1420   -0.9910 hc        1 MOL      0.058261
     92 H41         1.3610   -6.6230    0.4030 hc        1 MOL      0.058261
     93 N9          0.0260   -2.0340   -1.2400 n         1 MOL     -0.473432
     94 C29        -0.8930   -1.0780   -0.6040 c3        1 MOL     -0.049670
     95 C30        -1.8810   -1.8250    0.3870 c         1 MOL      0.574095
     96 O16        -1.5580   -2.5470    1.2450 o         1 MOL     -0.488615
     97 C31        -0.1190    0.1410   -0.0110 c3        1 MOL      0.211659
     98 C32         0.7100    0.9650   -1.0290 c3        1 MOL     -0.068750
     99 C33        -0.9940    1.0160    0.8610 c3        1 MOL     -0.290163
    100 C34        -0.0080    1.8680   -2.0570 c3        1 MOL     -0.368697
    101 H42        -0.1650   -2.2490   -2.2090 hn        1 MOL      0.303802
    102 H43        -1.4850   -0.5440   -1.3520 h1        1 MOL      0.069181
    103 H44         0.6140   -0.2470    0.6950 hc        1 MOL     -0.030653
    104 H45         1.3240    0.2820   -1.6210 hc        1 MOL      0.113405
    105 H46         1.3570    1.6640   -0.5060 hc        1 MOL      0.113405
    106 H47        -1.8970    1.2510    0.2810 hc        1 MOL      0.046774
    107 H48        -1.1680    0.5280    1.8160 hc        1 MOL      0.046774
    108 H49        -0.5750    2.0080    1.0400 hc        1 MOL      0.046774
    109 H50        -0.6910    1.2640   -2.6480 hc        1 MOL      0.095430
    110 H51        -0.5520    2.6920   -1.5970 hc        1 MOL      0.095430
    111 H52         0.6960    2.2210   -2.8230 hc        1 MOL      0.095430
    112 N10        -3.1320   -1.4930    0.1120 n         1 MOL     -0.516514
    113 C35        -4.3280   -1.8810    0.7360 c3        1 MOL      0.090299
    114 C36        -5.4140   -2.1890   -0.2500 c         1 MOL      0.601314
    115 O17        -5.4850   -1.5910   -1.3170 o         1 MOL     -0.557218
    116 C37        -4.7820   -0.7930    1.6870 c3        1 MOL      0.399593
    117 C38        -5.2300    0.5550    1.1400 c3        1 MOL     -0.223292
    118 O18        -3.7630   -0.5630    2.6850 oh        1 MOL     -0.636252
    119 H53        -3.2690   -0.8490   -0.6540 hn        1 MOL      0.257876
    120 H54        -4.2570   -2.7730    1.3580 h1        1 MOL      0.066969
    121 H55        -5.6460   -1.2280    2.2010 h1        1 MOL     -0.011924
    122 H56        -3.6160    0.3920    2.6490 ho        1 MOL      0.378642
    123 H57        -4.4370    1.1550    0.6900 hc        1 MOL      0.064968
    124 H58        -6.0340    0.3550    0.4310 hc        1 MOL      0.064968
    125 H59        -5.6650    1.1410    1.9460 hc        1 MOL      0.064968
    126 N11        -6.3710   -3.0400    0.1870 n         1 MOL     -0.632250
    127 C39        -7.7210   -3.1310   -0.4850 c3        1 MOL      0.228925
    128 C40        -8.4960   -1.9320   -0.0740 c         1 MOL      0.314895
    129 O19        -8.5580   -1.6460    1.1280 o         1 MOL     -0.461179
    130 C41        -8.4190   -4.4310   -0.1640 c3        1 MOL      0.451102
    131 C42        -9.5310   -4.6040   -1.1760 c3        1 MOL     -0.432758
    132 O20        -7.4970   -5.5040   -0.3290 oh        1 MOL     -0.606154
    133 H60        -6.1640   -3.5680    1.0190 hn        1 MOL      0.300352
    134 H61        -7.5190   -3.1260   -1.5530 h1        1 MOL      0.072133
    135 H62        -8.7750   -4.3830    0.8620 h1        1 MOL     -0.031033
    136 H63        -7.9130   -6.2150    0.1620 ho        1 MOL      0.379021
    137 H64        -9.1200   -4.7970   -2.1740 hc        1 MOL      0.100592
    138 H65       -10.1950   -5.3760   -0.7900 hc        1 MOL      0.100592
    139 H66       -10.1590   -3.7170   -1.2230 hc        1 MOL      0.100592
    140 N12        -9.1090   -1.1860   -1.0250 n         1 MOL     -0.381469
    141 C43        -9.7760    0.0750   -0.8170 c3        1 MOL      0.214709
    142 C44        -9.0490    1.2130   -0.0570 c         1 MOL      0.433171
    143 O21        -8.4410    1.0510    1.0210 o         1 MOL     -0.449025
    144 C45       -11.2400   -0.0710   -0.3570 c3        1 MOL     -0.107176
    145 C46       -12.1210   -1.0400   -1.0900 c3        1 MOL      0.096757
    146 C47       -13.5780   -1.1730   -0.6380 c3        1 MOL      0.078996
    147 C48       -14.3380   -2.3240   -1.2480 c3        1 MOL      0.081314
    148 N13       -15.7390   -2.4510   -0.8150 n4        1 MOL     -0.149374
    149 H67        -9.0250   -1.5620   -1.9660 hn        1 MOL      0.233347
    150 H68        -9.8310    0.4170   -1.8540 h1        1 MOL      0.021905
    151 H69       -11.6820    0.9250   -0.4210 hc        1 MOL      0.030482
    152 H70       -11.2950   -0.3940    0.6840 hc        1 MOL      0.030482
    153 H71       -11.5510   -1.9720   -1.1570 hc        1 MOL     -0.035309
    154 H72       -12.0850   -0.7290   -2.1310 hc        1 MOL     -0.035309
    155 H73       -14.0460   -0.2550   -0.9850 hc        1 MOL     -0.006008
    156 H74       -13.6470   -1.1820    0.4430 hc        1 MOL     -0.006008
    157 H75       -13.7000   -3.1970   -1.0860 hx        1 MOL      0.028086
    158 H76       -14.3800   -2.1590   -2.3150 hx        1 MOL      0.028086
    159 H77       -16.3080   -1.8690   -1.4000 hn        1 MOL      0.198782
    160 H78       -16.0170   -3.4130   -0.9810 hn        1 MOL      0.198782
    161 H79       -15.9720   -2.2300    0.1470 hn        1 MOL      0.198782
    162 N14        -9.1800    2.3840   -0.6310 n         1 MOL     -0.362600
    163 C49        -8.5330    3.5600   -0.0770 c3        1 MOL      0.012412
    164 C50        -6.9370    3.5790    0.0120 c         1 MOL      0.189738
    165 O22        -6.3720    3.9180    1.0630 o         1 MOL     -0.406625
    166 C51        -9.0690    4.8150   -0.8080 c3        1 MOL     -0.070020
    167 C52        -8.9090    6.1250    0.0130 c3        1 MOL     -0.185740
    168 C53        -7.4730    6.6600    0.0450 c         1 MOL      0.784853
    169 O23        -7.0280    7.0900    1.0890 o         1 MOL     -0.652436
    170 O24        -6.8330    6.7190   -0.9900 o         1 MOL     -0.652436
    171 H80        -9.7750    2.4930   -1.4500 hn        1 MOL      0.245392
    172 H81        -8.9240    3.4460    0.9390 h1        1 MOL      0.111950
    173 H82       -10.1050    4.7190   -1.1200 hc        1 MOL      0.035979
    174 H83        -8.5080    5.0410   -1.7190 hc        1 MOL      0.035979
    175 H84        -9.2280    5.9830    1.0450 hc        1 MOL      0.031037
    176 H85        -9.5180    6.9090   -0.4190 hc        1 MOL      0.031037
    177 N15        -6.2170    3.4210   -1.1360 n         1 MOL     -0.197498
    178 C54        -6.6210    3.0060   -2.4760 c3        1 MOL     -0.097190
    179 H86        -6.4920    3.8380   -3.1680 h1        1 MOL      0.062237
    180 H87        -6.0040    2.1670   -2.7980 h1        1 MOL      0.062237
    181 H88        -7.6680    2.7040   -2.4640 h1        1 MOL      0.062237
    182 H89        -5.2480    3.6520   -0.9420 hn        1 MOL      0.268824
    183 Ca1         3.3430   -3.3270    2.2260 Ca        1 MOL      1.736288
    184 O25         2.2510   -1.1290    3.0740 oh        1 MOL     -0.852454
    185 H90         2.3820   -0.2610    3.4550 ho        1 MOL      0.419592
    186 H91         1.3030   -1.1850    2.9160 ho        1 MOL      0.419592
    187 O26         3.3700   -3.5910    4.8720 oh        1 MOL     -0.852454
    188 H92         2.5960   -3.4910    5.4320 ho        1 MOL      0.419592
    189 H93         4.1110   -3.4780    5.4740 ho        1 MOL      0.419592
    190 O27         5.4220   -1.9220    3.3050 oh        1 MOL     -0.852454
    191 H94         5.7920   -1.2270    2.7600 ho        1 MOL      0.419592
    192 H95         5.4870   -1.5890    4.2000 ho        1 MOL      0.419592
    193 O28         0.7670   -3.8350    3.3420 oh        1 MOL     -0.852454
    194 H96         0.8510   -4.7820    3.4510 ho        1 MOL      0.419592
    195 H97        -0.1480   -3.6490    3.5730 ho        1 MOL      0.419592
    196 O29         3.3070   -5.9560    2.8600 oh        1 MOL     -0.852454
    197 H98         2.8430   -6.5980    3.4020 ho        1 MOL      0.419592
    198 H99         4.1960   -6.2980    2.7770 ho        1 MOL      0.419592
@<TRIPOS>BOND
     1    1    2 1   
     2    1    4 1   
     3    1    5 1   
     4    1    6 1   
     5    2    3 2   
     6    2    7 1   
     7    7    8 1   
     8    7   15 1   
     9    8    9 1   
    10    8   11 1   
    11    8   16 1   
    12    9   10 2   
    13    9   19 1   
    14   11   12 1   
    15   11   17 1   
    16   11   18 1   
    17   12   13 1   
    18   12   14 1   
    19   19   20 1   
    20   19   28 1   
    21   20   21 1   
    22   20   23 1   
    23   20   29 1   
    24   21   22 2   
    25   21   41 1   
    26   23   24 1   
    27   23   30 1   
    28   23   31 1   
    29   24   25 1   
    30   24   32 1   
    31   24   33 1   
    32   25   26 1   
    33   25   34 1   
    34   25   35 1   
    35   26   27 1   
    36   26   36 1   
    37   26   37 1   
    38   27   38 1   
    39   27   39 1   
    40   27   40 1   
    41   41   42 1   
    42   41   49 1   
    43   42   43 1   
    44   42   45 1   
    45   42   50 1   
    46   43   44 2   
    47   43   53 1   
    48   45   46 1   
    49   45   51 1   
    50   45   52 1   
    51   46   47 1   
    52   46   48 1   
    53   53   54 1   
    54   53   57 1   
    55   54   55 1   
    56   54   58 1   
    57   54   59 1   
    58   55   56 2   
    59   55   60 1   
    60   60   61 1   
    61   60   68 1   
    62   61   62 1   
    63   61   64 1   
    64   61   69 1   
    65   62   63 2   
    66   62   72 1   
    67   64   65 1   
    68   64   70 1   
    69   64   71 1   
    70   65   66 1   
    71   65   67 1   
    72   72   73 1   
    73   72   76 1   
    74   73   74 1   
    75   73   77 1   
    76   73   78 1   
    77   74   75 2   
    78   74   79 1   
    79   79   80 1   
    80   79   86 1   
    81   80   81 1   
    82   80   83 1   
    83   80   87 1   
    84   81   82 2   
    85   81   93 1   
    86   83   84 1   
    87   83   85 1   
    88   83   88 1   
    89   84   90 1   
    90   84   91 1   
    91   84   92 1   
    92   85   89 1   
    93   93   94 1   
    94   93  101 1   
    95   94   95 1   
    96   94   97 1   
    97   94  102 1   
    98   95   96 2   
    99   95  112 1   
   100   97   98 1   
   101   97   99 1   
   102   97  103 1   
   103   98  100 1   
   104   98  104 1   
   105   98  105 1   
   106   99  106 1   
   107   99  107 1   
   108   99  108 1   
   109  100  109 1   
   110  100  110 1   
   111  100  111 1   
   112  112  113 1   
   113  112  119 1   
   114  113  114 1   
   115  113  116 1   
   116  113  120 1   
   117  114  115 2   
   118  114  126 1   
   119  116  117 1   
   120  116  118 1   
   121  116  121 1   
   122  117  123 1   
   123  117  124 1   
   124  117  125 1   
   125  118  122 1   
   126  126  127 1   
   127  126  133 1   
   128  127  128 1   
   129  127  130 1   
   130  127  134 1   
   131  128  129 2   
   132  128  140 1   
   133  130  131 1   
   134  130  132 1   
   135  130  135 1   
   136  131  137 1   
   137  131  138 1   
   138  131  139 1   
   139  132  136 1   
   140  140  141 1   
   141  140  149 1   
   142  141  142 1   
   143  141  144 1   
   144  141  150 1   
   145  142  143 2   
   146  142  162 1   
   147  144  145 1   
   148  144  151 1   
   149  144  152 1   
   150  145  146 1   
   151  145  153 1   
   152  145  154 1   
   153  146  147 1   
   154  146  155 1   
   155  146  156 1   
   156  147  148 1   
   157  147  157 1   
   158  147  158 1   
   159  148  159 1   
   160  148  160 1   
   161  148  161 1   
   162  162  163 1   
   163  162  171 1   
   164  163  164 1   
   165  163  166 1   
   166  163  172 1   
   167  164  165 2   
   168  164  177 1   
   169  166  167 1   
   170  166  173 1   
   171  166  174 1   
   172  167  168 1   
   173  167  175 1   
   174  167  176 1   
   175  168  169 1   
   176  168  170 1   
   177  177  178 1   
   178  177  182 1   
   179  178  179 1   
   180  178  180 1   
   181  178  181 1   
   182  184  185 1   
   183  184  186 1   
   184  187  188 1   
   185  187  189 1   
   186  190  191 1   
   187  190  192 1   
   188  193  194 1   
   189  193  195 1   
   190  196  197 1   
   191  196  198 1   
@<TRIPOS>SUBSTRUCTURE
     1 MOL         1 TEMP              0 ****  ****    0 ROOT
