@<TRIPOS>MOLECULE
MOL
  178   175     1     0     0
SMALL
resp


@<TRIPOS>ATOM
      1 C1          3.2050   -3.1000    4.0220 c3        1 MOL     -0.417138
      2 C2          4.4680   -2.2750    3.7170 c         1 MOL      0.745372
      3 O1          4.5850   -1.0590    3.8590 o         1 MOL     -0.597813
      4 H1          3.3660   -3.6900    4.9240 hc        1 MOL      0.102152
      5 H2          2.3600   -2.4270    4.1740 hc        1 MOL      0.102152
      6 H3          2.9930   -3.7660    3.1850 hc        1 MOL      0.102152
      7 N1          5.4760   -3.0480    3.3170 n         1 MOL     -0.504556
      8 C3          6.8830   -2.6490    3.1180 c3        1 MOL      0.154308
      9 C4          7.3360   -2.4000    1.6540 c         1 MOL      0.570243
     10 O2          6.8320   -3.1550    0.8160 o         1 MOL     -0.531420
     11 C5          7.7980   -3.6420    3.7930 c3        1 MOL     -0.277711
     12 C6          9.3160   -3.3560    3.4800 c         1 MOL      0.764570
     13 O3          9.9170   -3.9590    2.5770 o         1 MOL     -0.739376
     14 O4          9.9250   -2.6080    4.2750 o         1 MOL     -0.739376
     15 H4          5.4220   -4.0450    3.4180 hn        1 MOL      0.262138
     16 H5          6.9890   -1.7220    3.6890 h1        1 MOL      0.029822
     17 H6          7.6080   -4.5980    3.3090 hc        1 MOL      0.031253
     18 H7          7.6310   -3.6480    4.8750 hc        1 MOL      0.031253
     19 N2          8.1650   -1.3380    1.3600 n         1 MOL     -0.512735
     20 C7          8.3510   -0.8410    0.0290 c3        1 MOL      0.249336
     21 C8          7.0650   -0.3010   -0.5810 c         1 MOL      0.665116
     22 O5          6.3560    0.4070    0.1470 o         1 MOL     -0.529572
     23 C9          9.4100    0.3740    0.1370 c3        1 MOL     -0.279719
     24 H8          8.5190   -0.7390    2.0860 hn        1 MOL      0.277655
     25 H9          8.6690   -1.6880   -0.5930 h1        1 MOL      0.016463
     26 H10         9.4660    0.9400   -0.7900 hc        1 MOL      0.073717
     27 H11         9.1170    1.0560    0.9350 hc        1 MOL      0.073717
     28 H12        10.4130   -0.0170    0.2860 hc        1 MOL      0.073717
     29 N3          6.7520   -0.4480   -1.9170 n         1 MOL     -0.900090
     30 C10         5.3620   -0.5680   -2.4110 c3        1 MOL      0.369841
     31 C11         5.0350    0.2910   -3.6890 c         1 MOL      0.366018
     32 O6          4.0830    0.0210   -4.4080 o         1 MOL     -0.506910
     33 C12         5.1670   -2.0710   -2.7280 c3        1 MOL     -0.075049
     34 C13         3.6850   -2.3250   -2.7890 c         1 MOL      0.736332
     35 O7          2.8450   -1.6780   -2.1320 o         1 MOL     -0.797202
     36 O8          3.2390   -3.4000   -3.3010 o         1 MOL     -0.797202
     37 H13         7.4840   -0.8080   -2.5170 hn        1 MOL      0.318700
     38 H14         4.6610   -0.1520   -1.6910 h1        1 MOL      0.104751
     39 H15         5.5470   -2.7210   -1.9350 hc        1 MOL      0.019601
     40 H16         5.5580   -2.4980   -3.6480 hc        1 MOL      0.019601
     41 N4          5.7840    1.3690   -3.8970 n         1 MOL     -0.298030
     42 C14         5.5920    2.4640   -4.8560 c3        1 MOL     -0.123148
     43 C15         4.5120    3.4390   -4.2960 c         1 MOL      0.596390
     44 O9          4.9120    4.4370   -3.7370 o         1 MOL     -0.549015
     45 H17         6.6060    1.5490   -3.3340 hn        1 MOL      0.293828
     46 H18         5.1320    2.0730   -5.7640 h1        1 MOL      0.063677
     47 H19         6.4630    3.0640   -5.1130 h1        1 MOL      0.063677
     48 N5          3.1740    3.2010   -4.4440 n         1 MOL     -0.559889
     49 C16         2.1450    4.1280   -3.8890 c3        1 MOL      0.159721
     50 C17         2.3270    4.2040   -2.3240 c         1 MOL      0.569438
     51 O10         2.7280    3.2220   -1.6870 o         1 MOL     -0.469722
     52 C18         0.7180    3.5970   -4.3110 c3        1 MOL     -0.281606
     53 C19        -0.4120    3.9390   -3.3300 c         1 MOL      0.577434
     54 N6         -0.5610    3.1280   -2.3750 n         1 MOL     -0.700354
     55 O11        -1.1470    4.9610   -3.3840 o         1 MOL     -0.576211
     56 H20         2.8720    2.4020   -4.9720 hn        1 MOL      0.332460
     57 H21         2.3800    5.1030   -4.3230 h1        1 MOL      0.048973
     58 H22         0.7300    2.5090   -4.4170 hc        1 MOL      0.085818
     59 H23         0.3860    4.0550   -5.2380 hc        1 MOL      0.085818
     60 H24         0.0130    2.3000   -2.4330 hn        1 MOL      0.369025
     61 H25        -1.3770    3.1020   -1.7880 hn        1 MOL      0.369025
     62 N7          2.0410    5.3490   -1.7180 n         1 MOL     -0.542574
     63 C20         1.7880    5.4610   -0.2640 c3        1 MOL      0.220075
     64 C21         0.5590    6.3000    0.0260 c         1 MOL      0.372558
     65 O12        -0.2830    6.5300   -0.8150 o         1 MOL     -0.413948
     66 H26         1.8490    6.1810   -2.2610 hn        1 MOL      0.285547
     67 H27         2.6550    5.9250    0.2130 h1        1 MOL      0.018648
     68 H28         1.7050    4.4600    0.1740 h1        1 MOL      0.018648
     69 N8          0.4650    6.6230    1.3180 n         1 MOL     -0.390844
     70 C22        -0.7180    7.1350    1.9360 c3        1 MOL     -0.134665
     71 C23        -1.8010    6.0740    2.2540 c         1 MOL      0.446999
     72 O13        -2.9860    6.3920    2.3640 o         1 MOL     -0.541331
     73 C24        -0.3030    7.9900    3.1790 c3        1 MOL      0.518801
     74 C25         0.1850    7.1490    4.4380 c3        1 MOL     -0.291121
     75 O14         0.5700    8.9660    2.8190 oh        1 MOL     -0.659489
     76 H29         1.2950    6.4730    1.8690 hn        1 MOL      0.232030
     77 H30        -1.2180    7.8850    1.3200 h1        1 MOL      0.110984
     78 H31        -1.2330    8.4710    3.5080 h1        1 MOL     -0.009811
     79 H32         1.3910    8.6510    2.4410 ho        1 MOL      0.391625
     80 H33         0.8730    6.3520    4.1260 hc        1 MOL      0.061089
     81 H34         0.7280    7.7850    5.1380 hc        1 MOL      0.061089
     82 H35        -0.7050    6.8740    5.0110 hc        1 MOL      0.061089
     83 N9         -1.3860    4.7900    2.2700 n         1 MOL     -0.096334
     84 C26        -2.2080    3.6140    2.4320 c3        1 MOL     -0.059910
     85 C27        -1.5910    2.4140    1.6330 c         1 MOL      0.252565
     86 O15        -0.4180    2.5130    1.2180 o         1 MOL     -0.392972
     87 C28        -2.2710    3.1960    3.9360 c3        1 MOL      0.144728
     88 C29        -0.9500    3.2690    4.6960 c3        1 MOL     -0.035243
     89 C30        -3.3190    4.0000    4.7660 c3        1 MOL     -0.191826
     90 C31         0.3420    2.6760    4.1050 c3        1 MOL     -0.276504
     91 H36        -0.3950    4.6290    2.1430 hn        1 MOL      0.176178
     92 H37        -3.2570    3.8710    2.2580 h1        1 MOL      0.079919
     93 H38        -2.6360    2.1720    4.0010 hc        1 MOL      0.005530
     94 H39        -1.0290    2.7040    5.6320 hc        1 MOL      0.012439
     95 H40        -0.6640    4.3060    4.8870 hc        1 MOL      0.012439
     96 H41        -4.3140    3.5540    4.7090 hc        1 MOL      0.037216
     97 H42        -3.0080    3.9540    5.8180 hc        1 MOL      0.037216
     98 H43        -3.1740    5.0050    4.3880 hc        1 MOL      0.037216
     99 H44         1.0810    2.3870    4.8550 hc        1 MOL      0.090151
    100 H45         0.0410    1.7430    3.6220 hc        1 MOL      0.090151
    101 H46         0.7330    3.3190    3.3130 hc        1 MOL      0.090151
    102 N10        -2.2010    1.2460    1.5490 n         1 MOL     -0.311759
    103 C32        -1.8450    0.2250    0.5470 c3        1 MOL      0.265645
    104 C33        -3.1740   -0.3320   -0.0900 c         1 MOL      0.359166
    105 O16        -3.3460   -1.5740   -0.2120 o         1 MOL     -0.401632
    106 C34        -0.9010   -0.8010    1.1510 c3        1 MOL     -0.400884
    107 C35        -0.1870   -1.7180    0.1360 c         1 MOL      0.941651
    108 O17        -0.3260   -1.4640   -1.0980 o         1 MOL     -0.783005
    109 O18         0.4910   -2.7320    0.4310 o         1 MOL     -0.783005
    110 H47        -3.0490    1.1520    2.0900 hn        1 MOL      0.236800
    111 H48        -1.3780    0.7990   -0.2490 h1        1 MOL     -0.005311
    112 H49        -1.4940   -1.4880    1.7460 hc        1 MOL      0.088182
    113 H50        -0.1600   -0.2090    1.6870 hc        1 MOL      0.088182
    114 N11        -4.1820    0.5640   -0.3290 n         1 MOL     -0.364971
    115 C36        -5.4990    0.2610   -0.8690 c3        1 MOL      0.026714
    116 C37        -6.0990   -0.9280   -0.0400 c         1 MOL      0.508982
    117 O19        -6.1100   -0.8750    1.1820 o         1 MOL     -0.593196
    118 C38        -6.3400    1.6020   -0.8710 c3        1 MOL     -0.265075
    119 C39        -7.8030    1.3770   -1.3290 ca        1 MOL      0.116699
    120 C40        -8.1190    1.8030   -2.6320 ca        1 MOL     -0.164504
    121 C41        -8.7890    0.7400   -0.5560 ca        1 MOL     -0.164504
    122 C42        -9.4110    1.5950   -3.1520 ca        1 MOL     -0.131960
    123 C43       -10.0850    0.5610   -1.0680 ca        1 MOL     -0.131960
    124 C44       -10.3570    0.9230   -2.3680 ca        1 MOL     -0.081552
    125 H51        -4.0420    1.5200   -0.0400 hn        1 MOL      0.234940
    126 H52        -5.3300   -0.0910   -1.8810 h1        1 MOL      0.064322
    127 H53        -5.9630    2.3120   -1.6090 hc        1 MOL      0.116625
    128 H54        -6.4230    2.1170    0.0860 hc        1 MOL      0.116625
    129 H55        -7.3830    2.2490   -3.2830 ha        1 MOL      0.124488
    130 H56        -8.5580    0.3980    0.4500 ha        1 MOL      0.124488
    131 H57        -9.5830    1.8280   -4.1860 ha        1 MOL      0.115464
    132 H58       -10.8240    0.0760   -0.4530 ha        1 MOL      0.115464
    133 H59       -11.2990    0.7100   -2.8330 ha        1 MOL      0.088738
    134 N12        -6.6010   -2.0060   -0.6340 n         1 MOL      0.169625
    135 C45        -7.4320   -2.8800    0.1270 c3        1 MOL     -0.305615
    136 C46        -6.6340   -3.8580    0.9530 c         1 MOL      0.445119
    137 O20        -7.1840   -4.5400    1.8190 o         1 MOL     -0.532067
    138 C47        -8.3260   -3.5560   -0.8190 c3        1 MOL      0.237694
    139 C48        -7.5230   -3.6250   -2.0910 c3        1 MOL     -0.006290
    140 C49        -6.6050   -2.3510   -2.0350 c3        1 MOL     -0.235373
    141 H60        -8.1180   -2.2680    0.7250 h1        1 MOL      0.108137
    142 H61        -8.7340   -4.4990   -0.4720 hc        1 MOL     -0.028686
    143 H62        -9.1860   -2.9210   -1.0240 hc        1 MOL     -0.028686
    144 H63        -6.9770   -4.5690   -2.0910 hc        1 MOL      0.007312
    145 H64        -8.2870   -3.6500   -2.8740 hc        1 MOL      0.007312
    146 H65        -5.5580   -2.4290   -2.3360 h1        1 MOL      0.071192
    147 H66        -6.9790   -1.5600   -2.6740 h1        1 MOL      0.071192
    148 N13        -5.2750   -3.9010    0.8290 n         1 MOL     -0.150571
    149 C50        -4.5380   -4.9170    1.5460 c3        1 MOL     -0.288645
    150 C51        -4.3650   -4.6080    3.0470 c         1 MOL      0.484941
    151 O21        -4.0320   -5.6010    3.7740 o         1 MOL     -0.559345
    152 C52        -3.0850   -5.0420    0.8860 c3        1 MOL      0.227078
    153 C53        -3.0870   -5.2600   -0.6700 c3        1 MOL     -0.119594
    154 C54        -1.6980   -5.0440   -1.2950 c         1 MOL      0.570350
    155 O22        -1.5970   -4.3470   -2.3310 o         1 MOL     -0.696696
    156 O23        -0.6160   -5.4890   -0.7400 o         1 MOL     -0.696696
    157 H67        -4.7970   -3.2050    0.2760 hn        1 MOL      0.216742
    158 H68        -4.9450   -5.9290    1.3990 h1        1 MOL      0.141240
    159 H69        -2.5200   -5.8250    1.4130 hc        1 MOL     -0.017846
    160 H70        -2.5950   -4.0770    1.0300 hc        1 MOL     -0.017846
    161 H71        -3.7420   -4.4960   -1.0700 hc        1 MOL      0.001781
    162 H72        -3.3970   -6.2910   -0.8440 hc        1 MOL      0.001781
    163 N14        -4.4630   -3.3630    3.4040 n         1 MOL     -0.192044
    164 C55        -4.4010   -2.8320    4.8490 c3        1 MOL     -0.349355
    165 H73        -4.8350   -3.5680    5.5260 h1        1 MOL      0.140188
    166 H74        -3.3630   -2.6510    5.1260 h1        1 MOL      0.140188
    167 H75        -4.9640   -1.9000    4.9190 h1        1 MOL      0.140188
    168 H76        -4.6380   -2.7070    2.6590 hn        1 MOL      0.233804
    169 Ca1         0.9040   -3.6650   -1.9810 Ca        1 MOL      1.796465
    170 O24         2.7310   -5.1110   -0.5480 oh        1 MOL     -0.846626
    171 H77         2.7180   -6.0490   -0.3610 ho        1 MOL      0.410520
    172 H78         3.6310   -4.8370   -0.3650 ho        1 MOL      0.410520
    173 O25         0.3510   -2.7930   -4.3540 oh        1 MOL     -0.846626
    174 H79        -0.3620   -2.1840   -4.5340 ho        1 MOL      0.410520
    175 H80         1.0300   -2.5510   -4.9850 ho        1 MOL      0.410520
    176 O26         1.3500   -6.0110   -3.0970 oh        1 MOL     -0.846626
    177 H81         1.8790   -6.1060   -3.8940 ho        1 MOL      0.410520
    178 H82         0.8960   -6.8600   -3.0160 ho        1 MOL      0.410520
@<TRIPOS>BOND
     1    1    2 1   
     2    1    4 1   
     3    1    5 1   
     4    1    6 1   
     5    2    3 2   
     6    2    7 1   
     7    7    8 1   
     8    7   15 1   
     9    8    9 1   
    10    8   11 1   
    11    8   16 1   
    12    9   10 2   
    13    9   19 1   
    14   11   12 1   
    15   11   17 1   
    16   11   18 1   
    17   12   13 1   
    18   12   14 1   
    19   19   20 1   
    20   19   24 1   
    21   20   21 1   
    22   20   23 1   
    23   20   25 1   
    24   21   22 2   
    25   21   29 1   
    26   23   26 1   
    27   23   27 1   
    28   23   28 1   
    29   29   30 1   
    30   29   37 1   
    31   30   31 1   
    32   30   33 1   
    33   30   38 1   
    34   31   32 2   
    35   31   41 1   
    36   33   34 1   
    37   33   39 1   
    38   33   40 1   
    39   34   35 1   
    40   34   36 1   
    41   41   42 1   
    42   41   45 1   
    43   42   43 1   
    44   42   46 1   
    45   42   47 1   
    46   43   44 2   
    47   43   48 1   
    48   48   49 1   
    49   48   56 1   
    50   49   50 1   
    51   49   52 1   
    52   49   57 1   
    53   50   51 2   
    54   50   62 1   
    55   52   53 1   
    56   52   58 1   
    57   52   59 1   
    58   53   54 1   
    59   53   55 2   
    60   54   60 1   
    61   54   61 1   
    62   62   63 1   
    63   62   66 1   
    64   63   64 1   
    65   63   67 1   
    66   63   68 1   
    67   64   65 2   
    68   64   69 1   
    69   69   70 1   
    70   69   76 1   
    71   70   71 1   
    72   70   73 1   
    73   70   77 1   
    74   71   72 2   
    75   71   83 1   
    76   73   74 1   
    77   73   75 1   
    78   73   78 1   
    79   74   80 1   
    80   74   81 1   
    81   74   82 1   
    82   75   79 1   
    83   83   84 1   
    84   83   91 1   
    85   84   85 1   
    86   84   87 1   
    87   84   92 1   
    88   85   86 2   
    89   85  102 1   
    90   87   88 1   
    91   87   89 1   
    92   87   93 1   
    93   88   90 1   
    94   88   94 1   
    95   88   95 1   
    96   89   96 1   
    97   89   97 1   
    98   89   98 1   
    99   90   99 1   
   100   90  100 1   
   101   90  101 1   
   102  102  103 1   
   103  102  110 1   
   104  103  104 1   
   105  103  106 1   
   106  103  111 1   
   107  104  105 2   
   108  104  114 1   
   109  106  107 1   
   110  106  112 1   
   111  106  113 1   
   112  107  108 1   
   113  107  109 1   
   114  114  115 1   
   115  114  125 1   
   116  115  116 1   
   117  115  118 1   
   118  115  126 1   
   119  116  117 2   
   120  116  134 1   
   121  118  119 1   
   122  118  127 1   
   123  118  128 1   
   124  119  120 ar  
   125  119  121 ar  
   126  120  122 ar  
   127  120  129 1   
   128  121  123 ar  
   129  121  130 1   
   130  122  124 ar  
   131  122  131 1   
   132  123  124 ar  
   133  123  132 1   
   134  124  133 1   
   135  134  135 1   
   136  134  140 1   
   137  135  136 1   
   138  135  138 1   
   139  135  141 1   
   140  136  137 2   
   141  136  148 1   
   142  138  139 1   
   143  138  142 1   
   144  138  143 1   
   145  139  140 1   
   146  139  144 1   
   147  139  145 1   
   148  140  146 1   
   149  140  147 1   
   150  148  149 1   
   151  148  157 1   
   152  149  150 1   
   153  149  152 1   
   154  149  158 1   
   155  150  151 2   
   156  150  163 1   
   157  152  153 1   
   158  152  159 1   
   159  152  160 1   
   160  153  154 1   
   161  153  161 1   
   162  153  162 1   
   163  154  155 1   
   164  154  156 1   
   165  163  164 1   
   166  163  168 1   
   167  164  165 1   
   168  164  166 1   
   169  164  167 1   
   170  170  171 1   
   171  170  172 1   
   172  173  174 1   
   173  173  175 1   
   174  176  177 1   
   175  176  178 1   
@<TRIPOS>SUBSTRUCTURE
     1 MOL         1 TEMP              0 ****  ****    0 ROOT
