@<TRIPOS>MOLECULE
MOL
  192   187     1     0     0
SMALL
resp


@<TRIPOS>ATOM
      1 C1          9.6430    1.7030    1.7410 c3        1 MOL     -0.441721
      2 C2          8.5620    0.9240    1.0300 c         1 MOL      0.770934
      3 O1          7.5590    0.6180    1.6590 o         1 MOL     -0.673599
      4 H1         10.5930    1.1750    1.6460 hc        1 MOL      0.112423
      5 H2          9.7320    2.6930    1.2940 hc        1 MOL      0.112423
      6 H3          9.3870    1.8010    2.7960 hc        1 MOL      0.112423
      7 N1          8.7880    0.4550   -0.2230 n         1 MOL     -0.577336
      8 C3          7.6600    0.1440   -1.1900 c3        1 MOL      0.048982
      9 C4          7.1740   -1.3470   -1.1290 c         1 MOL      0.515264
     10 O2          6.9880   -2.0900   -2.1160 o         1 MOL     -0.473095
     11 C5          8.0290    0.5300   -2.6220 c3        1 MOL     -0.071091
     12 C6          9.3130   -0.0920   -3.2150 c         1 MOL      0.648529
     13 O3          9.9720   -0.8620   -2.4550 o         1 MOL     -0.648785
     14 O4          9.5890    0.0310   -4.4360 o         1 MOL     -0.648785
     15 H4          9.7160    0.3600   -0.6040 hn        1 MOL      0.265600
     16 H5          6.8530    0.8400   -0.9360 h1        1 MOL      0.070162
     17 H6          8.2810    1.5920   -2.6710 hc        1 MOL      0.026807
     18 H7          7.1280    0.4370   -3.2290 hc        1 MOL      0.026807
     19 N2          6.9530   -1.7360    0.1050 n         1 MOL     -0.359622
     20 C7          6.4970   -3.0830    0.4960 c3        1 MOL      0.045208
     21 C8          5.0630   -3.4330    0.0190 c         1 MOL      0.600060
     22 O5          4.8310   -4.5620   -0.3190 o         1 MOL     -0.548690
     23 C9          6.5670   -3.2580    1.9640 c3        1 MOL      0.018796
     24 C10         7.9900   -3.2890    2.5230 c3        1 MOL     -0.064141
     25 C11         9.0930   -4.1050    1.8520 c3        1 MOL     -0.065994
     26 C12        10.4640   -3.7380    2.4080 c3        1 MOL     -0.009446
     27 N3         10.6370   -4.1400    3.8370 n4        1 MOL     -0.261806
     28 H8          7.1130   -1.1080    0.8850 hn        1 MOL      0.254003
     29 H9          7.0940   -3.8460   -0.0020 h1        1 MOL      0.050643
     30 H10         6.0560   -4.1850    2.2290 hc        1 MOL      0.010457
     31 H11         5.9670   -2.4870    2.4460 hc        1 MOL      0.010457
     32 H12         8.0140   -3.4560    3.5990 hc        1 MOL      0.010562
     33 H13         8.4130   -2.2800    2.4700 hc        1 MOL      0.010562
     34 H14         8.9720   -3.9100    0.7890 hc        1 MOL      0.067243
     35 H15         8.8920   -5.1430    2.1290 hc        1 MOL      0.067243
     36 H16        10.5650   -2.6580    2.3450 hx        1 MOL      0.104188
     37 H17        11.2550   -4.1600    1.7820 hx        1 MOL      0.104188
     38 H18        10.7910   -5.1300    3.9910 hn        1 MOL      0.269485
     39 H19        11.4580   -3.6780    4.1920 hn        1 MOL      0.269485
     40 H20         9.8790   -3.8380    4.4250 hn        1 MOL      0.269485
     41 N4          4.0960   -2.5180   -0.0600 n         1 MOL     -0.492960
     42 C13         3.9560   -1.3250    0.7580 c3        1 MOL      0.084633
     43 C14         3.8460   -0.0540   -0.1270 c         1 MOL      0.016640
     44 O6          3.7450   -0.0890   -1.3510 o         1 MOL     -0.319005
     45 C15         2.7360   -1.4800    1.7140 c3        1 MOL     -0.138214
     46 C16         1.2880   -1.8100    1.1110 c         1 MOL      0.752546
     47 O7          0.6680   -0.9380    0.4880 o         1 MOL     -0.703095
     48 O8          0.7460   -2.9150    1.3970 o         1 MOL     -0.703095
     49 H21         3.3670   -2.7510   -0.7110 hn        1 MOL      0.364639
     50 H22         4.8010   -1.1580    1.4260 h1        1 MOL      0.121200
     51 H23         2.5440   -0.6040    2.3180 hc        1 MOL      0.015272
     52 H24         2.9590   -2.2930    2.4060 hc        1 MOL      0.015272
     53 N5          4.0110    1.1630    0.4670 n         1 MOL     -0.149719
     54 C17         4.0370    2.4310   -0.1990 c3        1 MOL     -0.070093
     55 C18         2.7630    2.8900   -0.7570 c         1 MOL      0.416736
     56 O9          1.6820    2.3460   -0.4280 o         1 MOL     -0.497570
     57 H25         4.1020    1.2540    1.4690 hn        1 MOL      0.263919
     58 H26         4.7120    2.6010   -1.0390 h1        1 MOL      0.076152
     59 H27         4.3040    3.1780    0.5440 h1        1 MOL      0.076152
     60 N6          2.8080    3.9160   -1.6500 n         1 MOL     -0.414727
     61 C19         1.5850    4.5370   -2.2490 c3        1 MOL      0.273342
     62 C20         1.7450    6.0540   -2.2890 c         1 MOL      0.487096
     63 O10         2.8370    6.5240   -2.0250 o         1 MOL     -0.550186
     64 C21         1.3530    4.0040   -3.7030 c3        1 MOL     -0.352539
     65 C22         1.0720    2.5200   -3.5140 c         1 MOL      0.718078
     66 O11         0.0450    2.1050   -2.9440 o         1 MOL     -0.665524
     67 O12         1.9280    1.6500   -3.8790 o         1 MOL     -0.665524
     68 H28         3.7110    4.3280   -1.8040 hn        1 MOL      0.293434
     69 H29         0.7150    4.3450   -1.6190 h1        1 MOL      0.024445
     70 H30         2.1650    4.1660   -4.4130 hc        1 MOL      0.089911
     71 H31         0.4380    4.4450   -4.1050 hc        1 MOL      0.089911
     72 N7          0.7220    6.8900   -2.4960 n         1 MOL     -0.482612
     73 C23        -0.7240    6.5820   -2.4270 c3        1 MOL     -0.026554
     74 C24        -1.2420    6.2220   -1.0780 c         1 MOL      0.697676
     75 O13        -0.7070    6.6730   -0.0570 o         1 MOL     -0.556426
     76 H32         1.0380    7.8460   -2.4910 hn        1 MOL      0.331248
     77 H33        -1.0070    5.7570   -3.0940 h1        1 MOL      0.057817
     78 H34        -1.2530    7.4820   -2.7230 h1        1 MOL      0.057817
     79 N8         -2.3010    5.4390   -1.0220 n         1 MOL     -0.641098
     80 C25        -2.7030    4.9160    0.3050 c3        1 MOL      0.047987
     81 C26        -1.9790    3.6490    0.6730 c         1 MOL      0.678436
     82 O14        -1.5740    2.9200   -0.2400 o         1 MOL     -0.638866
     83 C27        -4.2660    4.6560    0.3150 c3        1 MOL      0.287557
     84 C28        -4.7710    4.0890   -1.0220 c3        1 MOL     -0.280203
     85 O15        -4.9610    5.9480    0.4150 oh        1 MOL     -0.592441
     86 H35        -2.6870    5.1040   -1.8980 hn        1 MOL      0.353421
     87 H36        -2.4990    5.5990    1.1310 h1        1 MOL      0.076277
     88 H37        -4.6350    4.1050    1.1850 h1        1 MOL      0.000438
     89 H38        -4.9050    6.3060    1.2990 ho        1 MOL      0.370560
     90 H39        -4.8900    4.9010   -1.7400 hc        1 MOL      0.080701
     91 H40        -4.0700    3.3630   -1.4390 hc        1 MOL      0.080701
     92 H41        -5.7250    3.5780   -0.8750 hc        1 MOL      0.080701
     93 N9         -1.8040    3.5910    1.9770 n         1 MOL     -0.640749
     94 C29        -1.1840    2.5140    2.8240 c3        1 MOL      0.067485
     95 C30        -1.7900    1.0500    2.7030 c         1 MOL      0.554383
     96 O16        -1.6870    0.4670    1.6270 o         1 MOL     -0.483224
     97 C31         0.3370    2.5640    2.6410 c3        1 MOL      0.544078
     98 C32         0.9610    3.9940    2.6860 c3        1 MOL     -0.155938
     99 C33         1.1310    1.6500    3.6260 c3        1 MOL     -0.606467
    100 C34         0.5160    4.9390    3.8440 c3        1 MOL     -0.126366
    101 H42        -2.1770    4.3640    2.4970 hn        1 MOL      0.301050
    102 H43        -1.2680    2.7560    3.8760 h1        1 MOL      0.030680
    103 H44         0.5600    2.1340    1.6760 hc        1 MOL     -0.174229
    104 H45         0.8180    4.4270    1.7010 hc        1 MOL      0.062289
    105 H46         2.0310    3.7740    2.7130 hc        1 MOL      0.062289
    106 H47         0.9080    0.6110    3.4000 hc        1 MOL      0.135262
    107 H48         2.2000    1.6940    3.4040 hc        1 MOL      0.135262
    108 H49         0.8560    1.8510    4.6550 hc        1 MOL      0.135262
    109 H50         1.1400    5.8230    3.9080 hc        1 MOL      0.036113
    110 H51        -0.5650    5.0750    3.8630 hc        1 MOL      0.036113
    111 H52         0.6630    4.3370    4.7400 hc        1 MOL      0.036113
    112 N10        -2.3390    0.4770    3.7930 n         1 MOL     -0.584160
    113 C35        -2.5280   -0.9710    3.9310 c3        1 MOL     -0.058627
    114 C36        -3.8700   -1.4090    3.4510 c         1 MOL      0.471139
    115 O17        -4.2330   -2.5810    3.5910 o         1 MOL     -0.533836
    116 C37        -2.2180   -1.4070    5.3350 c3        1 MOL      0.521185
    117 C38        -3.1960   -0.8500    6.3870 c3        1 MOL     -0.316300
    118 O18        -0.9010   -1.0210    5.7330 oh        1 MOL     -0.631395
    119 H53        -2.5830    1.0870    4.5510 hn        1 MOL      0.296276
    120 H54        -1.7840   -1.4970    3.3350 h1        1 MOL      0.103451
    121 H55        -2.1310   -2.4960    5.3600 h1        1 MOL     -0.018235
    122 H56        -0.3360   -1.5410    5.1580 ho        1 MOL      0.389297
    123 H57        -4.1340   -1.3520    6.1740 hc        1 MOL      0.085057
    124 H58        -2.9070   -1.0950    7.4090 hc        1 MOL      0.085057
    125 H59        -3.3340    0.2270    6.3950 hc        1 MOL      0.085057
    126 N11        -4.6990   -0.5310    2.8440 n         1 MOL     -0.236729
    127 C39        -5.9850   -0.9600    2.3220 c3        1 MOL     -0.136098
    128 C40        -5.8540   -1.4310    0.8370 c         1 MOL      0.584260
    129 O19        -5.1270   -0.7700    0.0960 o         1 MOL     -0.493461
    130 C41        -6.9860    0.1360    2.5200 c3        1 MOL      0.190119
    131 C42        -8.3390    0.1390    1.7620 c3        1 MOL     -0.292234
    132 O20        -7.3850    0.0900    3.8450 oh        1 MOL     -0.559103
    133 H60        -4.3630    0.4010    2.6580 hn        1 MOL      0.190424
    134 H61        -6.4340   -1.7960    2.8530 h1        1 MOL      0.127183
    135 H62        -6.6140    1.1490    2.3480 h1        1 MOL      0.071038
    136 H63        -6.6400    0.3830    4.3770 ho        1 MOL      0.357405
    137 H64        -8.8060   -0.8300    1.8530 hc        1 MOL      0.096113
    138 H65        -8.9990    0.9300    2.0960 hc        1 MOL      0.096113
    139 H66        -8.1530    0.2940    0.6940 hc        1 MOL      0.096113
    140 N12        -6.5340   -2.4940    0.4710 n         1 MOL     -0.503817
    141 C43        -6.8510   -2.9870   -0.8400 c3        1 MOL      0.086240
    142 C44        -5.5550   -2.8050   -1.7280 c         1 MOL      0.458121
    143 O21        -5.5890   -2.1470   -2.7820 o         1 MOL     -0.563130
    144 C45        -8.0730   -2.1790   -1.2930 c3        1 MOL     -0.228293
    145 C46        -9.3600   -2.5240   -0.5280 c3        1 MOL     -0.103684
    146 C47       -10.5930   -1.9850   -1.3210 c3        1 MOL      0.084720
    147 C48       -10.7550   -0.5050   -1.0410 c3        1 MOL      0.134075
    148 N13       -12.0040   -0.0570   -1.7780 n4        1 MOL     -0.238556
    149 H67        -7.1240   -2.9050    1.1760 hn        1 MOL      0.290361
    150 H68        -7.0390   -4.0580   -0.9380 h1        1 MOL      0.082453
    151 H69        -8.3750   -2.4220   -2.3160 hc        1 MOL      0.100766
    152 H70        -7.8450   -1.1140   -1.2760 hc        1 MOL      0.100766
    153 H71        -9.2830   -2.0980    0.4670 hc        1 MOL      0.057147
    154 H72        -9.3940   -3.6080   -0.4640 hc        1 MOL      0.057147
    155 H73       -11.4260   -2.4620   -0.7980 hc        1 MOL      0.004581
    156 H74       -10.5900   -2.1650   -2.3930 hc        1 MOL      0.004581
    157 H75        -9.9330    0.0070   -1.5430 hx        1 MOL      0.020951
    158 H76       -10.7990   -0.2730    0.0220 hx        1 MOL      0.020951
    159 H77       -12.8300   -0.4510   -1.3600 hn        1 MOL      0.200611
    160 H78       -12.1300    0.9430   -1.6790 hn        1 MOL      0.200611
    161 H79       -11.8970   -0.3380   -2.7410 hn        1 MOL      0.200611
    162 N14        -4.4660   -3.3910   -1.3310 n         1 MOL     -0.266099
    163 C49        -3.1770   -3.2610   -1.9830 c3        1 MOL      0.225284
    164 C50        -2.1370   -2.8770   -0.9160 c         1 MOL      0.318677
    165 O22        -1.5570   -1.8270   -1.0340 o         1 MOL     -0.617709
    166 C51        -2.7240   -4.5210   -2.7750 c3        1 MOL     -0.149921
    167 C52        -3.6600   -4.9070   -3.9370 c3        1 MOL     -0.360430
    168 C53        -3.2790   -6.2660   -4.4950 c         1 MOL      0.759371
    169 O23        -3.9000   -7.2770   -4.1660 o         1 MOL     -0.624298
    170 O24        -2.3530   -6.4490   -5.2830 o         1 MOL     -0.624298
    171 H80        -4.5110   -4.0270   -0.5400 hn        1 MOL      0.217738
    172 H81        -3.1920   -2.4220   -2.6870 h1        1 MOL      0.050733
    173 H82        -2.6970   -5.4110   -2.1350 hc        1 MOL      0.096753
    174 H83        -1.7280   -4.4260   -3.2060 hc        1 MOL      0.096753
    175 H84        -3.5030   -4.1390   -4.6860 hc        1 MOL      0.087812
    176 H85        -4.6960   -5.0500   -3.6210 hc        1 MOL      0.087812
    177 N15        -1.6650   -3.6360    0.0770 n         1 MOL     -0.202380
    178 C54        -1.9290   -4.9750    0.5310 c3        1 MOL     -0.117584
    179 H86        -3.0060   -5.1400    0.5680 h1        1 MOL      0.057388
    180 H87        -1.4750   -5.6880   -0.1570 h1        1 MOL      0.057388
    181 H88        -1.5060   -5.1100    1.5270 h1        1 MOL      0.057388
    182 H89        -0.8890   -3.2090    0.5640 hn        1 MOL      0.305177
    183 Ca1        -0.6690    0.6180   -0.8850 Ca        1 MOL      1.745437
    184 O25        -1.5340   -0.1690   -3.4390 oh        1 MOL     -0.862420
    185 H90        -2.3870   -0.4340   -3.7820 ho        1 MOL      0.419327
    186 H91        -0.9820   -0.9510   -3.5210 ho        1 MOL      0.419327
    187 O26        -3.2700    0.8570   -1.2160 oh        1 MOL     -0.862420
    188 H92        -4.0900    0.4400   -0.9390 ho        1 MOL      0.419327
    189 H93        -3.5210    1.4350   -1.9320 ho        1 MOL      0.419327
    190 O27         1.4350   -0.3740   -2.5120 oh        1 MOL     -0.862420
    191 H94         2.2380   -0.2810   -2.0010 ho        1 MOL      0.419327
    192 H95         1.3830    0.4260   -3.0330 ho        1 MOL      0.419327
@<TRIPOS>BOND
     1    1    2 1   
     2    1    4 1   
     3    1    5 1   
     4    1    6 1   
     5    2    3 2   
     6    2    7 1   
     7    7    8 1   
     8    7   15 1   
     9    8    9 1   
    10    8   11 1   
    11    8   16 1   
    12    9   10 2   
    13    9   19 1   
    14   11   12 1   
    15   11   17 1   
    16   11   18 1   
    17   12   13 1   
    18   12   14 1   
    19   19   20 1   
    20   19   28 1   
    21   20   21 1   
    22   20   23 1   
    23   20   29 1   
    24   21   22 2   
    25   21   41 1   
    26   23   24 1   
    27   23   30 1   
    28   23   31 1   
    29   24   25 1   
    30   24   32 1   
    31   24   33 1   
    32   25   26 1   
    33   25   34 1   
    34   25   35 1   
    35   26   27 1   
    36   26   36 1   
    37   26   37 1   
    38   27   38 1   
    39   27   39 1   
    40   27   40 1   
    41   41   42 1   
    42   41   49 1   
    43   42   43 1   
    44   42   45 1   
    45   42   50 1   
    46   43   44 2   
    47   43   53 1   
    48   45   46 1   
    49   45   51 1   
    50   45   52 1   
    51   46   47 1   
    52   46   48 1   
    53   53   54 1   
    54   53   57 1   
    55   54   55 1   
    56   54   58 1   
    57   54   59 1   
    58   55   56 2   
    59   55   60 1   
    60   60   61 1   
    61   60   68 1   
    62   61   62 1   
    63   61   64 1   
    64   61   69 1   
    65   62   63 2   
    66   62   72 1   
    67   64   65 1   
    68   64   70 1   
    69   64   71 1   
    70   65   66 1   
    71   65   67 1   
    72   72   73 1   
    73   72   76 1   
    74   73   74 1   
    75   73   77 1   
    76   73   78 1   
    77   74   75 2   
    78   74   79 1   
    79   79   80 1   
    80   79   86 1   
    81   80   81 1   
    82   80   83 1   
    83   80   87 1   
    84   81   82 2   
    85   81   93 1   
    86   83   84 1   
    87   83   85 1   
    88   83   88 1   
    89   84   90 1   
    90   84   91 1   
    91   84   92 1   
    92   85   89 1   
    93   93   94 1   
    94   93  101 1   
    95   94   95 1   
    96   94   97 1   
    97   94  102 1   
    98   95   96 2   
    99   95  112 1   
   100   97   98 1   
   101   97   99 1   
   102   97  103 1   
   103   98  100 1   
   104   98  104 1   
   105   98  105 1   
   106   99  106 1   
   107   99  107 1   
   108   99  108 1   
   109  100  109 1   
   110  100  110 1   
   111  100  111 1   
   112  112  113 1   
   113  112  119 1   
   114  113  114 1   
   115  113  116 1   
   116  113  120 1   
   117  114  115 2   
   118  114  126 1   
   119  116  117 1   
   120  116  118 1   
   121  116  121 1   
   122  117  123 1   
   123  117  124 1   
   124  117  125 1   
   125  118  122 1   
   126  126  127 1   
   127  126  133 1   
   128  127  128 1   
   129  127  130 1   
   130  127  134 1   
   131  128  129 2   
   132  128  140 1   
   133  130  131 1   
   134  130  132 1   
   135  130  135 1   
   136  131  137 1   
   137  131  138 1   
   138  131  139 1   
   139  132  136 1   
   140  140  141 1   
   141  140  149 1   
   142  141  142 1   
   143  141  144 1   
   144  141  150 1   
   145  142  143 2   
   146  142  162 1   
   147  144  145 1   
   148  144  151 1   
   149  144  152 1   
   150  145  146 1   
   151  145  153 1   
   152  145  154 1   
   153  146  147 1   
   154  146  155 1   
   155  146  156 1   
   156  147  148 1   
   157  147  157 1   
   158  147  158 1   
   159  148  159 1   
   160  148  160 1   
   161  148  161 1   
   162  162  163 1   
   163  162  171 1   
   164  163  164 1   
   165  163  166 1   
   166  163  172 1   
   167  164  165 2   
   168  164  177 1   
   169  166  167 1   
   170  166  173 1   
   171  166  174 1   
   172  167  168 1   
   173  167  175 1   
   174  167  176 1   
   175  168  169 1   
   176  168  170 1   
   177  177  178 1   
   178  177  182 1   
   179  178  179 1   
   180  178  180 1   
   181  178  181 1   
   182  184  185 1   
   183  184  186 1   
   184  187  188 1   
   185  187  189 1   
   186  190  191 1   
   187  190  192 1   
@<TRIPOS>SUBSTRUCTURE
     1 MOL         1 TEMP              0 ****  ****    0 ROOT
