@<TRIPOS>MOLECULE
MOL
  192   187     1     0     0
SMALL
resp


@<TRIPOS>ATOM
      1 C1          5.7540    2.1130    5.6410 c3        1 MOL     -0.288955
      2 C2          5.1420    1.7910    4.2290 c         1 MOL      0.737973
      3 O1          4.4320    2.6070    3.6130 o         1 MOL     -0.609752
      4 H1          5.3660    1.4050    6.3740 hc        1 MOL      0.072694
      5 H2          6.8390    2.0280    5.5950 hc        1 MOL      0.072694
      6 H3          5.4800    3.1260    5.9350 hc        1 MOL      0.072694
      7 N1          5.3100    0.5650    3.7140 n         1 MOL     -0.765956
      8 C3          4.9640    0.1840    2.3480 c3        1 MOL      0.696176
      9 C4          3.4680    0.0890    2.0290 c         1 MOL     -0.105729
     10 O2          3.1370   -0.1070    0.8590 o         1 MOL     -0.065163
     11 C5          5.7990   -0.9960    1.8590 c3        1 MOL     -0.251076
     12 C6          6.5040   -1.8670    2.8960 c         1 MOL      0.645600
     13 O3          7.5680   -1.3760    3.3460 o         1 MOL     -0.712437
     14 O4          5.9910   -2.8960    3.3400 o         1 MOL     -0.712437
     15 H4          5.9720    0.0240    4.2380 hn        1 MOL      0.355305
     16 H5          5.2240    1.0400    1.7090 h1        1 MOL     -0.011124
     17 H6          6.5850   -0.5010    1.3040 hc        1 MOL      0.004833
     18 H7          5.1590   -1.5820    1.1930 hc        1 MOL      0.004833
     19 N2          2.5280    0.1860    3.0140 n         1 MOL     -0.163020
     20 C7          1.1070    0.1710    2.8070 c3        1 MOL     -0.058360
     21 C8          0.3630    1.5210    2.4880 c         1 MOL      0.454700
     22 O5          0.4480    2.4880    3.2530 o         1 MOL     -0.529091
     23 C9          0.4320   -0.4620    4.0430 c3        1 MOL     -0.213882
     24 C10         0.5060   -1.9730    4.1000 c3        1 MOL      0.005260
     25 C11        -0.3450   -2.3660    5.3180 c3        1 MOL     -0.288843
     26 C12        -0.6740   -3.9050    5.2020 c3        1 MOL      0.243440
     27 N3         -0.9190   -4.4980    6.5150 n4        1 MOL     -0.473035
     28 H8          2.8810    0.2300    3.9590 hn        1 MOL      0.241929
     29 H9          0.9130   -0.5370    1.9980 h1        1 MOL      0.197581
     30 H10        -0.6320   -0.2230    3.9960 hc        1 MOL      0.085264
     31 H11         0.8350    0.0090    4.9460 hc        1 MOL      0.085264
     32 H12         1.5520   -2.2760    4.0800 hc        1 MOL      0.070329
     33 H13         0.0490   -2.3200    3.1750 hc        1 MOL      0.070329
     34 H14        -1.3270   -1.8940    5.3120 hc        1 MOL      0.101273
     35 H15         0.0950   -2.1000    6.2760 hc        1 MOL      0.101273
     36 H16         0.1070   -4.4170    4.6500 hx        1 MOL      0.044727
     37 H17        -1.5140   -4.0610    4.5290 hx        1 MOL      0.044727
     38 H18        -0.3140   -4.1170    7.2400 hn        1 MOL      0.350109
     39 H19        -1.8890   -4.3340    6.7670 hn        1 MOL      0.350109
     40 H20        -0.7770   -5.4880    6.5330 hn        1 MOL      0.350109
     41 N4         -0.4860    1.6100    1.4350 n         1 MOL      0.014658
     42 C13        -1.0630    0.5850    0.5410 c3        1 MOL     -0.736193
     43 C14        -1.4530   -0.7800    1.1520 c         1 MOL      0.326445
     44 O6         -0.8320   -1.8200    0.8820 o         1 MOL     -0.463546
     45 C15        -0.3040    0.4230   -0.7280 c3        1 MOL      0.023449
     46 C16        -0.4410    1.7540   -1.5950 c         1 MOL      0.530533
     47 O7         -0.0020    1.7070   -2.7390 o         1 MOL     -0.623872
     48 O8         -1.0830    2.7530   -1.1930 o         1 MOL     -0.623872
     49 H21        -0.6710    2.5300    1.0820 hn        1 MOL      0.065531
     50 H22        -2.0320    0.9730    0.2210 h1        1 MOL      0.171813
     51 H23        -0.8140   -0.3680   -1.2840 hc        1 MOL      0.114981
     52 H24         0.7580    0.2450   -0.5240 hc        1 MOL      0.114981
     53 N5         -2.4000   -0.7740    2.1140 n         1 MOL     -0.158682
     54 C17        -3.3360    0.3010    2.4380 c3        1 MOL     -0.056242
     55 C18        -4.5570   -0.2510    3.2080 c         1 MOL      0.593651
     56 O9         -4.5530   -1.3100    3.7350 o         1 MOL     -0.582022
     57 H25        -2.3910   -1.6410    2.6420 hn        1 MOL      0.211863
     58 H26        -3.6720    0.6920    1.4750 h1        1 MOL      0.087366
     59 H27        -2.9100    1.0340    3.1230 h1        1 MOL      0.087366
     60 N6         -5.6340    0.4930    3.2960 n         1 MOL     -0.469181
     61 C19        -5.9540    1.7970    2.7170 c3        1 MOL      0.052874
     62 C20        -6.8330    1.7180    1.4160 c         1 MOL      0.355492
     63 O10        -7.6700    0.7850    1.2920 o         1 MOL     -0.444212
     64 C21        -6.4770    2.7380    3.7720 c3        1 MOL     -0.247479
     65 C22        -7.9210    2.5280    4.1250 c         1 MOL      0.842095
     66 O11        -8.7710    3.2980    3.5670 o         1 MOL     -0.689454
     67 O12        -8.2860    1.8140    5.0280 o         1 MOL     -0.689454
     68 H28        -6.3360   -0.0030    3.8140 hn        1 MOL      0.326981
     69 H29        -5.0460    2.3300    2.4290 h1        1 MOL      0.048333
     70 H30        -6.3950    3.8020    3.5440 hc        1 MOL      0.041944
     71 H31        -5.9790    2.5770    4.7300 hc        1 MOL      0.041944
     72 N7         -6.7720    2.6580    0.4420 n         1 MOL     -0.190617
     73 C23        -7.5680    2.5490   -0.7680 c3        1 MOL     -0.222961
     74 C24        -7.2300    1.3660   -1.7370 c         1 MOL      0.608977
     75 O13        -8.0110    0.7840   -2.4240 o         1 MOL     -0.531302
     76 H32        -6.1370    3.4270    0.6080 hn        1 MOL      0.199138
     77 H33        -7.7360    3.4680   -1.3330 h1        1 MOL      0.121660
     78 H34        -8.6060    2.3840   -0.4700 h1        1 MOL      0.121660
     79 N8         -5.9350    1.0210   -1.7630 n         1 MOL     -0.400959
     80 C25        -5.3880   -0.1350   -2.5150 c3        1 MOL     -0.042407
     81 C26        -4.4610   -0.9120   -1.6390 c         1 MOL      0.456858
     82 O14        -3.6790   -0.2490   -0.9230 o         1 MOL     -0.389149
     83 C27        -4.7500    0.4030   -3.8140 c3        1 MOL      0.260966
     84 C28        -5.8610    0.8670   -4.7470 c3        1 MOL     -0.376114
     85 O15        -3.9970   -0.6170   -4.4570 oh        1 MOL     -0.517609
     86 H35        -5.2600    1.4090   -1.1270 hn        1 MOL      0.134813
     87 H36        -6.2610   -0.7510   -2.6940 h1        1 MOL      0.105701
     88 H37        -4.0230    1.2130   -3.6700 h1        1 MOL      0.090529
     89 H38        -4.6060   -1.3610   -4.4190 ho        1 MOL      0.333555
     90 H39        -5.3430    1.1040   -5.6780 hc        1 MOL      0.100449
     91 H40        -6.6710    0.1670   -4.9520 hc        1 MOL      0.100449
     92 H41        -6.3620    1.7510   -4.3390 hc        1 MOL      0.100449
     93 N9         -4.4450   -2.2290   -1.6330 n         1 MOL     -0.206858
     94 C29        -3.7970   -3.1070   -0.6400 c3        1 MOL     -0.081321
     95 C30        -2.6430   -3.9600   -1.2600 c         1 MOL      0.341496
     96 O16        -2.1790   -4.9860   -0.6660 o         1 MOL     -0.557042
     97 C31        -4.8620   -3.9960   -0.0760 c3        1 MOL      0.060264
     98 C32        -5.6120   -4.8620   -1.0950 c3        1 MOL      0.044483
     99 C33        -5.7530   -3.0190    0.8110 c3        1 MOL     -0.196825
    100 C34        -6.3530   -5.9120   -0.3060 c3        1 MOL     -0.129816
    101 H42        -4.9830   -2.7530   -2.3060 hn        1 MOL      0.178497
    102 H43        -3.3640   -2.4030    0.0680 h1        1 MOL      0.104877
    103 H44        -4.3650   -4.6740    0.6090 hc        1 MOL      0.045948
    104 H45        -4.9180   -5.2460   -1.8450 hc        1 MOL      0.009130
    105 H46        -6.3100   -4.2960   -1.6960 hc        1 MOL      0.009130
    106 H47        -5.1400   -2.3260    1.3740 hc        1 MOL      0.056869
    107 H48        -6.4170   -2.4700    0.1370 hc        1 MOL      0.056869
    108 H49        -6.3000   -3.6250    1.5380 hc        1 MOL      0.056869
    109 H50        -6.8730   -6.5650   -1.0050 hc        1 MOL      0.034248
    110 H51        -5.7140   -6.5450    0.3080 hc        1 MOL      0.034248
    111 H52        -7.2110   -5.5690    0.2700 hc        1 MOL      0.034248
    112 N10        -2.0910   -3.6210   -2.4000 n         1 MOL      0.077013
    113 C35        -0.9490   -4.3850   -3.0570 c3        1 MOL     -0.288221
    114 C36         0.4720   -3.8850   -2.6990 c         1 MOL      0.596934
    115 O17         1.5030   -4.3990   -3.2360 o         1 MOL     -0.544904
    116 C37        -1.1990   -4.4750   -4.5730 c3        1 MOL      0.322511
    117 C38        -1.2980   -3.1080   -5.2850 c3        1 MOL     -0.340144
    118 O18        -2.4890   -5.0570   -4.6340 oh        1 MOL     -0.619514
    119 H53        -2.4550   -2.7720   -2.8010 hn        1 MOL      0.068986
    120 H54        -0.9190   -5.3820   -2.6200 h1        1 MOL      0.165102
    121 H55        -0.4610   -5.1620   -4.9890 h1        1 MOL      0.019366
    122 H56        -2.3470   -5.7350   -5.3090 ho        1 MOL      0.388071
    123 H57        -2.1750   -2.6280   -4.8320 hc        1 MOL      0.101001
    124 H58        -0.4010   -2.4900   -5.1730 hc        1 MOL      0.101001
    125 H59        -1.5660   -3.1840   -6.3390 hc        1 MOL      0.101001
    126 N11         0.6270   -2.9880   -1.7160 n         1 MOL     -0.494752
    127 C39         1.8310   -2.5090   -1.1320 c3        1 MOL      0.004699
    128 C40         2.8100   -1.7460   -2.0450 c         1 MOL      0.368135
    129 O19         2.5030   -1.4660   -3.2680 o         1 MOL     -0.512213
    130 C41         2.5160   -3.7090   -0.4350 c3        1 MOL      0.388066
    131 C42         1.7080   -4.3800    0.7030 c3        1 MOL     -0.318222
    132 O20         3.6860   -3.2740    0.2660 oh        1 MOL     -0.624959
    133 H60        -0.2020   -2.6530   -1.2360 hn        1 MOL      0.325983
    134 H61         1.5330   -1.8470   -0.3160 h1        1 MOL      0.050223
    135 H62         2.6810   -4.4660   -1.2060 h1        1 MOL      0.012323
    136 H63         4.2110   -4.0790    0.2690 ho        1 MOL      0.390913
    137 H64         2.3650   -5.1130    1.1760 hc        1 MOL      0.065715
    138 H65         1.3410   -3.6270    1.3880 hc        1 MOL      0.065715
    139 H66         0.8130   -4.7810    0.2070 hc        1 MOL      0.065715
    140 N12         3.9260   -1.2500   -1.6590 n         1 MOL     -0.145038
    141 C43         4.9880   -0.4850   -2.4450 c3        1 MOL      0.032818
    142 C44         5.4530    0.8540   -1.9240 c         1 MOL      0.543318
    143 O21         6.2980    1.5060   -2.5130 o         1 MOL     -0.588351
    144 C45         6.2210   -1.3160   -2.8890 c3        1 MOL     -0.187726
    145 C46         7.0850   -1.9360   -1.7570 c3        1 MOL      0.101915
    146 C47         8.1610   -2.9880   -2.2740 c3        1 MOL     -0.214240
    147 C48         9.2130   -3.2650   -1.1780 c3        1 MOL      0.240745
    148 N13         9.8820   -4.5180   -1.2630 n4        1 MOL     -0.457579
    149 H67         4.1360   -1.4340   -0.6850 hn        1 MOL      0.041106
    150 H68         4.4600   -0.1450   -3.3360 h1        1 MOL      0.101974
    151 H69         6.8710   -0.7170   -3.5290 hc        1 MOL      0.066219
    152 H70         5.8950   -2.1080   -3.5680 hc        1 MOL      0.066219
    153 H71         6.4480   -2.4720   -1.0580 hc        1 MOL      0.042524
    154 H72         7.5010   -1.0460   -1.2800 hc        1 MOL      0.042524
    155 H73         8.6560   -2.6020   -3.1660 hc        1 MOL      0.053293
    156 H74         7.6140   -3.9000   -2.5280 hc        1 MOL      0.053293
    157 H75         8.7590   -3.0710   -0.2010 hx        1 MOL      0.045121
    158 H76         9.8820   -2.4120   -1.1210 hx        1 MOL      0.045121
    159 H77         9.3560   -5.3290   -0.9560 hn        1 MOL      0.344626
    160 H78        10.2780   -4.5960   -2.1840 hn        1 MOL      0.344626
    161 H79        10.7150   -4.5960   -0.6980 hn        1 MOL      0.344626
    162 N14         4.6790    1.3730   -0.9780 n         1 MOL     -0.170166
    163 C49         4.5050    2.8140   -0.8420 c3        1 MOL     -0.365519
    164 C50         5.8150    3.5140   -0.4200 c         1 MOL      0.527759
    165 O22         6.5260    3.1250    0.4900 o         1 MOL     -0.501446
    166 C51         3.4440    3.0710    0.2540 c3        1 MOL      0.539580
    167 C52         3.0200    4.5430    0.3610 c3        1 MOL     -0.151523
    168 C53         2.7290    5.1960   -0.9740 c         1 MOL      0.223594
    169 O23         3.6140    5.8230   -1.5290 o         1 MOL     -0.521805
    170 O24         1.6440    4.9940   -1.5110 o         1 MOL     -0.521805
    171 H80         4.0880    0.7900   -0.4080 hn        1 MOL     -0.025311
    172 H81         4.2510    3.2040   -1.8290 h1        1 MOL      0.200835
    173 H82         3.9350    2.8080    1.1900 hc        1 MOL     -0.069338
    174 H83         2.5220    2.5490   -0.0100 hc        1 MOL     -0.069338
    175 H84         3.6620    5.1300    1.0130 hc        1 MOL      0.015819
    176 H85         2.0540    4.4900    0.8550 hc        1 MOL      0.015819
    177 N15         6.0990    4.6530   -1.1550 n         1 MOL     -0.314576
    178 C54         7.2620    5.5640   -0.9830 c3        1 MOL      0.026731
    179 H86         7.7130    5.7640   -1.9550 h1        1 MOL      0.027945
    180 H87         6.9270    6.5020   -0.5380 h1        1 MOL      0.027945
    181 H88         7.9990    5.0940   -0.3310 h1        1 MOL      0.027945
    182 H89         5.4430    4.8900   -1.8790 hn        1 MOL      0.260034
    183 Ca1        -0.9530    5.4110   -1.4780 Ca        1 MOL      1.558926
    184 O25         0.2050    6.9760   -3.4130 oh        1 MOL     -0.836698
    185 H90         0.6350    7.0740   -4.2650 ho        1 MOL      0.412910
    186 H91         0.0030    7.8730   -3.1400 ho        1 MOL      0.412910
    187 O26        -0.9340    4.2040   -3.7440 oh        1 MOL     -0.836698
    188 H92        -0.7160    3.3480   -3.3710 ho        1 MOL      0.412910
    189 H93        -0.8820    4.0850   -4.6940 ho        1 MOL      0.412910
    190 O27        -2.9410    6.1590   -2.9880 oh        1 MOL     -0.836698
    191 H94        -2.9570    6.8930   -3.6110 ho        1 MOL      0.412910
    192 H95        -3.8590    5.9960   -2.7800 ho        1 MOL      0.412910
@<TRIPOS>BOND
     1    1    2 1   
     2    1    4 1   
     3    1    5 1   
     4    1    6 1   
     5    2    3 2   
     6    2    7 1   
     7    7    8 1   
     8    7   15 1   
     9    8    9 1   
    10    8   11 1   
    11    8   16 1   
    12    9   10 2   
    13    9   19 1   
    14   11   12 1   
    15   11   17 1   
    16   11   18 1   
    17   12   13 1   
    18   12   14 1   
    19   19   20 1   
    20   19   28 1   
    21   20   21 1   
    22   20   23 1   
    23   20   29 1   
    24   21   22 2   
    25   21   41 1   
    26   23   24 1   
    27   23   30 1   
    28   23   31 1   
    29   24   25 1   
    30   24   32 1   
    31   24   33 1   
    32   25   26 1   
    33   25   34 1   
    34   25   35 1   
    35   26   27 1   
    36   26   36 1   
    37   26   37 1   
    38   27   38 1   
    39   27   39 1   
    40   27   40 1   
    41   41   42 1   
    42   41   49 1   
    43   42   43 1   
    44   42   45 1   
    45   42   50 1   
    46   43   44 2   
    47   43   53 1   
    48   45   46 1   
    49   45   51 1   
    50   45   52 1   
    51   46   47 1   
    52   46   48 1   
    53   53   54 1   
    54   53   57 1   
    55   54   55 1   
    56   54   58 1   
    57   54   59 1   
    58   55   56 2   
    59   55   60 1   
    60   60   61 1   
    61   60   68 1   
    62   61   62 1   
    63   61   64 1   
    64   61   69 1   
    65   62   63 2   
    66   62   72 1   
    67   64   65 1   
    68   64   70 1   
    69   64   71 1   
    70   65   66 1   
    71   65   67 1   
    72   72   73 1   
    73   72   76 1   
    74   73   74 1   
    75   73   77 1   
    76   73   78 1   
    77   74   75 2   
    78   74   79 1   
    79   79   80 1   
    80   79   86 1   
    81   80   81 1   
    82   80   83 1   
    83   80   87 1   
    84   81   82 2   
    85   81   93 1   
    86   83   84 1   
    87   83   85 1   
    88   83   88 1   
    89   84   90 1   
    90   84   91 1   
    91   84   92 1   
    92   85   89 1   
    93   93   94 1   
    94   93  101 1   
    95   94   95 1   
    96   94   97 1   
    97   94  102 1   
    98   95   96 2   
    99   95  112 1   
   100   97   98 1   
   101   97   99 1   
   102   97  103 1   
   103   98  100 1   
   104   98  104 1   
   105   98  105 1   
   106   99  106 1   
   107   99  107 1   
   108   99  108 1   
   109  100  109 1   
   110  100  110 1   
   111  100  111 1   
   112  112  113 1   
   113  112  119 1   
   114  113  114 1   
   115  113  116 1   
   116  113  120 1   
   117  114  115 2   
   118  114  126 1   
   119  116  117 1   
   120  116  118 1   
   121  116  121 1   
   122  117  123 1   
   123  117  124 1   
   124  117  125 1   
   125  118  122 1   
   126  126  127 1   
   127  126  133 1   
   128  127  128 1   
   129  127  130 1   
   130  127  134 1   
   131  128  129 2   
   132  128  140 1   
   133  130  131 1   
   134  130  132 1   
   135  130  135 1   
   136  131  137 1   
   137  131  138 1   
   138  131  139 1   
   139  132  136 1   
   140  140  141 1   
   141  140  149 1   
   142  141  142 1   
   143  141  144 1   
   144  141  150 1   
   145  142  143 2   
   146  142  162 1   
   147  144  145 1   
   148  144  151 1   
   149  144  152 1   
   150  145  146 1   
   151  145  153 1   
   152  145  154 1   
   153  146  147 1   
   154  146  155 1   
   155  146  156 1   
   156  147  148 1   
   157  147  157 1   
   158  147  158 1   
   159  148  159 1   
   160  148  160 1   
   161  148  161 1   
   162  162  163 1   
   163  162  171 1   
   164  163  164 1   
   165  163  166 1   
   166  163  172 1   
   167  164  165 2   
   168  164  177 1   
   169  166  167 1   
   170  166  173 1   
   171  166  174 1   
   172  167  168 1   
   173  167  175 1   
   174  167  176 1   
   175  168  169 1   
   176  168  170 1   
   177  177  178 1   
   178  177  182 1   
   179  178  179 1   
   180  178  180 1   
   181  178  181 1   
   182  184  185 1   
   183  184  186 1   
   184  187  188 1   
   185  187  189 1   
   186  190  191 1   
   187  190  192 1   
@<TRIPOS>SUBSTRUCTURE
     1 MOL         1 TEMP              0 ****  ****    0 ROOT
