@<TRIPOS>MOLECULE
MOL
  181   177     1     0     0
SMALL
resp


@<TRIPOS>ATOM
      1 C1          1.4680   -1.4700    5.3250 c3        1 MOL     -0.463284
      2 C2          2.6550   -1.5510    4.2200 c         1 MOL      0.649685
      3 O1          2.4330   -1.1780    3.0880 o         1 MOL     -0.566331
      4 H1          1.5090   -2.3500    5.9660 hc        1 MOL      0.116895
      5 H2          1.5960   -0.5740    5.9310 hc        1 MOL      0.116895
      6 H3          0.5030   -1.4330    4.8200 hc        1 MOL      0.116895
      7 N1          3.7590   -2.1950    4.5430 n         1 MOL     -0.440256
      8 C3          4.9060   -2.3080    3.6330 c3        1 MOL     -0.104344
      9 C4          4.8260   -3.1900    2.3670 c         1 MOL      0.656571
     10 O2          5.5920   -2.9920    1.4730 o         1 MOL     -0.581066
     11 C5          6.0340   -2.6770    4.6040 c3        1 MOL     -0.232397
     12 C6          6.3490   -1.7660    5.7840 c         1 MOL      0.764509
     13 O3          6.2490   -2.2340    6.9210 o         1 MOL     -0.736108
     14 O4          6.9020   -0.6570    5.6060 o         1 MOL     -0.736108
     15 H4          3.8280   -2.4910    5.4990 hn        1 MOL      0.276812
     16 H5          5.1000   -1.2970    3.2530 h1        1 MOL      0.102979
     17 H6          6.9590   -2.7370    4.0410 hc        1 MOL      0.048168
     18 H7          5.7870   -3.6440    5.0360 hc        1 MOL      0.048168
     19 N2          3.8720   -4.1530    2.3760 n         1 MOL     -0.561150
     20 C7          3.5030   -5.0370    1.2620 c3        1 MOL      0.432464
     21 C8          3.0160   -4.2120   -0.0150 c         1 MOL      0.616742
     22 O5          1.8050   -3.9750   -0.1780 o         1 MOL     -0.733431
     23 C9          4.6230   -6.0190    1.0190 c3        1 MOL     -0.514615
     24 H8          3.3710   -4.2420    3.2560 hn        1 MOL      0.290979
     25 H9          2.6080   -5.5890    1.5390 h1        1 MOL      0.019817
     26 H10         4.2190   -6.8100    0.3790 hc        1 MOL      0.125587
     27 H11         5.4150   -5.5040    0.4720 hc        1 MOL      0.125587
     28 H12         4.9980   -6.3650    1.9810 hc        1 MOL      0.125587
     29 N3          3.9320   -3.8790   -0.8600 n         1 MOL     -0.416823
     30 C10         3.7450   -3.1600   -2.1730 c3        1 MOL      0.233925
     31 C11         4.9330   -2.1190   -2.3550 c         1 MOL      0.448906
     32 O6          5.3260   -1.8460   -3.4750 o         1 MOL     -0.501709
     33 C12         3.7520   -4.2420   -3.2650 c3        1 MOL     -0.168610
     34 C13         2.7160   -5.3300   -3.1480 c         1 MOL      0.721509
     35 O7          1.5980   -4.9270   -2.8910 o         1 MOL     -0.702526
     36 O8          3.0190   -6.5050   -3.3190 o         1 MOL     -0.702526
     37 H13         4.8740   -3.9390   -0.5190 hn        1 MOL      0.205033
     38 H14         2.7790   -2.6530   -2.1210 h1        1 MOL     -0.060330
     39 H15         4.7570   -4.6710   -3.2810 hc        1 MOL      0.023575
     40 H16         3.5430   -3.7310   -4.2020 hc        1 MOL      0.023575
     41 N4          5.4260   -1.3800   -1.2640 n         1 MOL     -0.252657
     42 C14         6.3740   -0.2910   -1.4280 c3        1 MOL     -0.302557
     43 C15         5.7770    0.9450   -2.1060 c         1 MOL      0.674330
     44 O9          6.4950    1.7810   -2.5850 o         1 MOL     -0.584249
     45 H17         4.9970   -1.4690   -0.3520 hn        1 MOL      0.253345
     46 H18         7.0290   -0.7510   -2.1590 h1        1 MOL      0.138123
     47 H19         6.8540   -0.0260   -0.4820 h1        1 MOL      0.138123
     48 N5          4.4610    1.1150   -2.1380 n         1 MOL     -0.208400
     49 C16         3.9010    2.2610   -2.8850 c3        1 MOL     -0.140442
     50 C17         4.0000    3.6120   -2.1760 c         1 MOL      0.565442
     51 O10         4.0970    3.6830   -0.9510 o         1 MOL     -0.532107
     52 C18         2.3620    2.0320   -2.9390 c3        1 MOL     -0.338507
     53 C19         2.0210    0.8610   -3.8670 c         1 MOL      0.675051
     54 N6          1.4220   -0.2220   -3.4570 n         1 MOL     -0.878673
     55 O11         2.2460    0.9090   -5.1240 o         1 MOL     -0.613607
     56 H20         3.8920    0.7000   -1.4130 hn        1 MOL      0.172283
     57 H21         4.3340    2.4240   -3.8700 h1        1 MOL      0.112044
     58 H22         1.8240    2.9340   -3.2460 hc        1 MOL      0.144884
     59 H23         1.9080    1.8380   -1.9720 hc        1 MOL      0.144884
     60 H24         1.0080   -0.2040   -2.5380 hn        1 MOL      0.424148
     61 H25         1.2500   -0.9720   -4.1170 hn        1 MOL      0.424148
     62 N7          4.0040    4.6970   -2.9050 n         1 MOL     -0.332667
     63 C20         3.8420    5.9990   -2.3520 c3        1 MOL     -0.326269
     64 C21         2.4580    6.3870   -1.9290 c         1 MOL      0.596114
     65 O12         1.5380    6.1940   -2.7750 o         1 MOL     -0.507014
     66 H26         3.8200    4.5560   -3.8940 hn        1 MOL      0.293271
     67 H27         4.0170    6.7070   -3.1640 h1        1 MOL      0.148276
     68 H28         4.5940    6.1040   -1.5660 h1        1 MOL      0.148276
     69 N8          2.2200    6.9220   -0.7160 n         1 MOL     -0.387925
     70 C22         1.0210    7.6320   -0.3390 c3        1 MOL     -0.459169
     71 C23        -0.0710    6.7140    0.2020 c         1 MOL      0.604613
     72 O13        -1.2060    7.1720    0.4130 o         1 MOL     -0.554378
     73 C24         1.3500    8.8060    0.6170 c3        1 MOL      0.599330
     74 C25         1.6090    8.3910    2.0880 c3        1 MOL     -0.377139
     75 O14         2.5600    9.4760    0.2660 oh        1 MOL     -0.639096
     76 H29         3.0870    7.1500   -0.2440 hn        1 MOL      0.266023
     77 H30         0.5950    8.0700   -1.2370 h1        1 MOL      0.195532
     78 H31         0.5140    9.4920    0.5050 h1        1 MOL      0.003811
     79 H32         3.2100    8.7770    0.1330 ho        1 MOL      0.365053
     80 H33         0.6560    8.2630    2.5870 hc        1 MOL      0.087578
     81 H34         2.1170    7.4220    2.1630 hc        1 MOL      0.087578
     82 H35         2.2070    9.1160    2.6450 hc        1 MOL      0.087578
     83 N9          0.2650    5.4550    0.4360 n         1 MOL     -0.234385
     84 C26        -0.4530    4.3960    1.1030 c3        1 MOL     -0.103313
     85 C27        -0.5960    3.1470    0.2610 c         1 MOL      0.474716
     86 O15        -0.0390    3.0910   -0.8680 o         1 MOL     -0.492843
     87 C28         0.0780    4.2200    2.5220 c3        1 MOL      0.117399
     88 C29         1.6710    4.1240    2.6080 c3        1 MOL     -0.035665
     89 C30        -0.4100    5.4000    3.3560 c3        1 MOL     -0.399221
     90 C31         2.2190    2.9250    1.7700 c3        1 MOL     -0.292012
     91 H36         1.2290    5.2050    0.2940 hn        1 MOL      0.230721
     92 H37        -1.5090    4.6930    1.1690 h1        1 MOL      0.117302
     93 H38        -0.2130    3.3010    3.0220 hc        1 MOL      0.043382
     94 H39         1.9330    4.0650    3.6630 hc        1 MOL      0.035794
     95 H40         2.1340    5.0090    2.1650 hc        1 MOL      0.035794
     96 H41         0.2600    6.2610    3.3350 hc        1 MOL      0.093827
     97 H42        -1.4010    5.7380    3.0450 hc        1 MOL      0.093827
     98 H43        -0.3810    5.0530    4.3860 hc        1 MOL      0.093827
     99 H44         2.0910    3.0350    0.6970 hc        1 MOL      0.106549
    100 H45         3.2660    2.7520    2.0350 hc        1 MOL      0.106549
    101 H46         1.6370    2.0260    1.9920 hc        1 MOL      0.106549
    102 N10        -1.4930    2.2270    0.6510 n         1 MOL     -0.321428
    103 C32        -1.5150    0.8790   -0.0170 c3        1 MOL      0.228001
    104 C33        -2.8650    0.3480   -0.3670 c         1 MOL      0.402178
    105 O16        -3.2530   -0.7970   -0.1730 o         1 MOL     -0.530426
    106 C34        -0.7360   -0.1530    0.8840 c3        1 MOL     -0.411578
    107 C35        -0.4480   -1.4440    0.0540 c         1 MOL      0.952363
    108 O17         0.0310   -1.3250   -1.1140 o         1 MOL     -0.757797
    109 O18        -0.7060   -2.6170    0.4830 o         1 MOL     -0.757797
    110 H47        -2.0060    2.3350    1.5130 hn        1 MOL      0.231174
    111 H48        -0.9030    1.0620   -0.9010 h1        1 MOL     -0.060313
    112 H49        -1.3770   -0.4180    1.7290 hc        1 MOL      0.098145
    113 H50         0.2280    0.2720    1.1490 hc        1 MOL      0.098145
    114 N11        -3.7400    1.2840   -0.8210 n         1 MOL     -0.273809
    115 C36        -5.0580    1.1290   -1.3340 c3        1 MOL      0.072069
    116 C37        -5.9610    0.5080   -0.2520 c         1 MOL      0.270361
    117 O19        -6.0360    0.9390    0.9010 o         1 MOL     -0.446776
    118 C38        -5.5340    2.5340   -1.7860 c3        1 MOL     -0.182861
    119 C39        -5.0750    3.7290   -0.9090 ca        1 MOL      0.076802
    120 C40        -5.7050    4.0750    0.2940 ca        1 MOL     -0.182975
    121 C41        -3.9820    4.4430   -1.3680 ca        1 MOL     -0.182975
    122 C42        -5.2210    5.1120    1.1200 ca        1 MOL     -0.086452
    123 C43        -3.6160    5.6090   -0.6310 ca        1 MOL     -0.086452
    124 C44        -4.1370    5.8550    0.6370 ca        1 MOL     -0.125543
    125 H51        -3.3960    2.2340   -0.8800 hn        1 MOL      0.192230
    126 H52        -4.9090    0.4490   -2.1740 h1        1 MOL      0.047293
    127 H53        -6.6080    2.4530   -1.9810 hc        1 MOL      0.080023
    128 H54        -5.1040    2.6880   -2.7680 hc        1 MOL      0.080023
    129 H55        -6.5440    3.5060    0.6700 ha        1 MOL      0.138844
    130 H56        -3.5160    4.1930   -2.3050 ha        1 MOL      0.138844
    131 H57        -5.6570    5.5080    2.0270 ha        1 MOL      0.110245
    132 H58        -2.8940    6.3190   -0.9880 ha        1 MOL      0.110245
    133 H59        -3.6990    6.6720    1.1880 ha        1 MOL      0.122793
    134 N12        -6.7610   -0.4960   -0.6830 n         1 MOL     -0.013531
    135 C45        -7.7490   -1.1300    0.1170 c3        1 MOL      0.126866
    136 C46        -7.1290   -1.9220    1.2550 c         1 MOL      0.175533
    137 O20        -7.7250   -2.0380    2.3900 o         1 MOL     -0.493541
    138 C47        -8.5570   -2.1790   -0.6850 c3        1 MOL     -0.032210
    139 C48        -8.2510   -1.7110   -2.0910 c3        1 MOL     -0.102169
    140 C49        -6.9370   -0.9310   -2.0170 c3        1 MOL      0.010223
    141 H60        -8.4080   -0.3590    0.5230 h1        1 MOL      0.039032
    142 H61        -8.1690   -3.1950   -0.5650 hc        1 MOL      0.046282
    143 H62        -9.6070   -2.0800   -0.4170 hc        1 MOL      0.046282
    144 H63        -8.1900   -2.6220   -2.6880 hc        1 MOL      0.039092
    145 H64        -9.0730   -1.1100   -2.4770 hc        1 MOL      0.039092
    146 H65        -6.1340   -1.6200   -2.2720 h1        1 MOL      0.014354
    147 H66        -6.9120   -0.2570   -2.8730 h1        1 MOL      0.014354
    148 N13        -5.8540   -2.4360    1.0760 n         1 MOL     -0.077596
    149 C50        -5.1020   -3.0830    2.1470 c3        1 MOL     -0.341008
    150 C51        -4.5690   -2.1170    3.1990 c         1 MOL      0.474529
    151 O21        -4.0960   -2.5540    4.2430 o         1 MOL     -0.540427
    152 C52        -3.9420   -3.8860    1.4570 c3        1 MOL      0.167126
    153 C53        -4.3480   -4.9260    0.3670 c3        1 MOL     -0.107278
    154 C54        -3.1020   -5.7970    0.1100 c         1 MOL      0.554471
    155 O22        -3.0480   -6.8260    0.8340 o         1 MOL     -0.654362
    156 O23        -2.2360   -5.4630   -0.7450 o         1 MOL     -0.654362
    157 H67        -5.5150   -2.4630    0.1270 hn        1 MOL      0.232354
    158 H68        -5.7290   -3.8110    2.6740 h1        1 MOL      0.182824
    159 H69        -3.4210   -4.4920    2.2030 hc        1 MOL      0.028766
    160 H70        -3.2830   -3.1170    1.0520 hc        1 MOL      0.028766
    161 H71        -4.6790   -4.3390   -0.4910 hc        1 MOL     -0.020525
    162 H72        -5.1390   -5.5220    0.8050 hc        1 MOL     -0.020525
    163 N14        -4.7840   -0.7980    2.9960 n         1 MOL     -0.046744
    164 C55        -4.7100    0.2990    4.0120 c3        1 MOL     -0.294307
    165 H73        -5.0200    1.2390    3.5550 h1        1 MOL      0.104470
    166 H74        -5.3710    0.0670    4.8470 h1        1 MOL      0.104470
    167 H75        -3.6860    0.3920    4.3730 h1        1 MOL      0.104470
    168 H76        -5.1250   -0.5470    2.0800 hn        1 MOL      0.153259
    169 Ca1        -0.4030   -3.9020   -1.6960 Ca        1 MOL      1.727920
    170 O24        -0.9920   -5.3940   -3.9780 oh        1 MOL     -0.798067
    171 H77        -1.5910   -5.3240   -4.7250 ho        1 MOL      0.381337
    172 H78        -0.2960   -5.9650   -4.2810 ho        1 MOL      0.381337
    173 O25        -0.6860   -2.3380   -3.8940 oh        1 MOL     -0.798067
    174 H79        -0.0820   -2.3010   -4.6350 ho        1 MOL      0.381337
    175 H80        -1.3340   -1.6670   -4.0720 ho        1 MOL      0.381337
    176 O26        -2.9050   -2.8160   -2.0380 oh        1 MOL     -0.798067
    177 H81        -3.1820   -2.2980   -1.2760 ho        1 MOL      0.381337
    178 H82        -2.8770   -2.1840   -2.7530 ho        1 MOL      0.381337
    179 O27         0.3190   -7.0440   -1.6010 oh        1 MOL     -0.798067
    180 H83        -0.4660   -7.2420   -2.1070 ho        1 MOL      0.381337
    181 H84         0.9640   -6.7370   -2.2520 ho        1 MOL      0.381337
@<TRIPOS>BOND
     1    1    2 1   
     2    1    4 1   
     3    1    5 1   
     4    1    6 1   
     5    2    3 2   
     6    2    7 1   
     7    7    8 1   
     8    7   15 1   
     9    8    9 1   
    10    8   11 1   
    11    8   16 1   
    12    9   10 2   
    13    9   19 1   
    14   11   12 1   
    15   11   17 1   
    16   11   18 1   
    17   12   13 1   
    18   12   14 1   
    19   19   20 1   
    20   19   24 1   
    21   20   21 1   
    22   20   23 1   
    23   20   25 1   
    24   21   22 2   
    25   21   29 1   
    26   23   26 1   
    27   23   27 1   
    28   23   28 1   
    29   29   30 1   
    30   29   37 1   
    31   30   31 1   
    32   30   33 1   
    33   30   38 1   
    34   31   32 2   
    35   31   41 1   
    36   33   34 1   
    37   33   39 1   
    38   33   40 1   
    39   34   35 1   
    40   34   36 1   
    41   41   42 1   
    42   41   45 1   
    43   42   43 1   
    44   42   46 1   
    45   42   47 1   
    46   43   44 2   
    47   43   48 1   
    48   48   49 1   
    49   48   56 1   
    50   49   50 1   
    51   49   52 1   
    52   49   57 1   
    53   50   51 2   
    54   50   62 1   
    55   52   53 1   
    56   52   58 1   
    57   52   59 1   
    58   53   54 1   
    59   53   55 2   
    60   54   60 1   
    61   54   61 1   
    62   62   63 1   
    63   62   66 1   
    64   63   64 1   
    65   63   67 1   
    66   63   68 1   
    67   64   65 2   
    68   64   69 1   
    69   69   70 1   
    70   69   76 1   
    71   70   71 1   
    72   70   73 1   
    73   70   77 1   
    74   71   72 2   
    75   71   83 1   
    76   73   74 1   
    77   73   75 1   
    78   73   78 1   
    79   74   80 1   
    80   74   81 1   
    81   74   82 1   
    82   75   79 1   
    83   83   84 1   
    84   83   91 1   
    85   84   85 1   
    86   84   87 1   
    87   84   92 1   
    88   85   86 2   
    89   85  102 1   
    90   87   88 1   
    91   87   89 1   
    92   87   93 1   
    93   88   90 1   
    94   88   94 1   
    95   88   95 1   
    96   89   96 1   
    97   89   97 1   
    98   89   98 1   
    99   90   99 1   
   100   90  100 1   
   101   90  101 1   
   102  102  103 1   
   103  102  110 1   
   104  103  104 1   
   105  103  106 1   
   106  103  111 1   
   107  104  105 2   
   108  104  114 1   
   109  106  107 1   
   110  106  112 1   
   111  106  113 1   
   112  107  108 1   
   113  107  109 1   
   114  114  115 1   
   115  114  125 1   
   116  115  116 1   
   117  115  118 1   
   118  115  126 1   
   119  116  117 2   
   120  116  134 1   
   121  118  119 1   
   122  118  127 1   
   123  118  128 1   
   124  119  120 ar  
   125  119  121 ar  
   126  120  122 ar  
   127  120  129 1   
   128  121  123 ar  
   129  121  130 1   
   130  122  124 ar  
   131  122  131 1   
   132  123  124 ar  
   133  123  132 1   
   134  124  133 1   
   135  134  135 1   
   136  134  140 1   
   137  135  136 1   
   138  135  138 1   
   139  135  141 1   
   140  136  137 2   
   141  136  148 1   
   142  138  139 1   
   143  138  142 1   
   144  138  143 1   
   145  139  140 1   
   146  139  144 1   
   147  139  145 1   
   148  140  146 1   
   149  140  147 1   
   150  148  149 1   
   151  148  157 1   
   152  149  150 1   
   153  149  152 1   
   154  149  158 1   
   155  150  151 2   
   156  150  163 1   
   157  152  153 1   
   158  152  159 1   
   159  152  160 1   
   160  153  154 1   
   161  153  161 1   
   162  153  162 1   
   163  154  155 1   
   164  154  156 1   
   165  163  164 1   
   166  163  168 1   
   167  164  165 1   
   168  164  166 1   
   169  164  167 1   
   170  170  171 1   
   171  170  172 1   
   172  173  174 1   
   173  173  175 1   
   174  176  177 1   
   175  176  178 1   
   176  179  180 1   
   177  179  181 1   
@<TRIPOS>SUBSTRUCTURE
     1 MOL         1 TEMP              0 ****  ****    0 ROOT
