@<TRIPOS>MOLECULE
MOL
  178   175     1     0     0
SMALL
resp


@<TRIPOS>ATOM
      1 C1         -7.3890    7.8840    2.3130 c3        1 MOL     -0.406728
      2 C2         -7.9060    7.0780    1.0890 c         1 MOL      0.682157
      3 O1         -8.0400    7.6890    0.0430 o         1 MOL     -0.571413
      4 H1         -8.2290    8.1420    2.9590 hc        1 MOL      0.096014
      5 H2         -6.6740    7.2800    2.8720 hc        1 MOL      0.096014
      6 H3         -6.9020    8.7960    1.9680 hc        1 MOL      0.096014
      7 N1         -8.2220    5.7590    1.1710 n         1 MOL     -0.481787
      8 C3         -8.9220    5.0950    0.1190 c3        1 MOL      0.092686
      9 C4         -8.0230    4.3430   -0.8420 c         1 MOL      0.531626
     10 O2         -8.3740    4.1350   -1.9880 o         1 MOL     -0.504025
     11 C5         -9.8200    4.1040    0.8280 c3        1 MOL     -0.156519
     12 C6        -10.9670    3.7400   -0.1050 c         1 MOL      0.683477
     13 O3        -10.8280    2.8040   -0.8960 o         1 MOL     -0.725423
     14 O4        -12.0500    4.4080   -0.1200 o         1 MOL     -0.725423
     15 H4         -8.1810    5.2210    2.0210 hn        1 MOL      0.278357
     16 H5         -9.5120    5.7960   -0.4690 h1        1 MOL      0.083525
     17 H6        -10.3130    4.5260    1.7070 hc        1 MOL     -0.005373
     18 H7         -9.3020    3.2030    1.1470 hc        1 MOL     -0.005373
     19 N2         -6.8370    4.0040   -0.3470 n         1 MOL     -0.460028
     20 C7         -5.9030    3.1550   -0.9930 c3        1 MOL      0.260457
     21 C8         -5.0740    2.2910   -0.0520 c         1 MOL      0.535742
     22 O5         -4.4910    2.8470    0.8920 o         1 MOL     -0.564002
     23 C9         -4.9540    4.0290   -1.8880 c3        1 MOL     -0.220656
     24 H8         -6.5940    4.3370    0.5730 hn        1 MOL      0.213420
     25 H9         -6.4650    2.4540   -1.5910 h1        1 MOL      0.024507
     26 H10        -4.4990    4.7890   -1.2520 hc        1 MOL      0.058869
     27 H11        -4.2560    3.4430   -2.4820 hc        1 MOL      0.058869
     28 H12        -5.5360    4.5640   -2.6430 hc        1 MOL      0.058869
     29 N3         -4.9800    0.9540   -0.0960 n         1 MOL     -0.513689
     30 C10        -5.5740    0.0320   -1.0600 c3        1 MOL     -0.039181
     31 C11        -5.6920   -1.3660   -0.4220 c         1 MOL      0.452734
     32 O6         -4.8000   -1.7530    0.3220 o         1 MOL     -0.509874
     33 C12        -4.6510   -0.0730   -2.3060 c3        1 MOL     -0.081251
     34 C13        -3.2450   -0.4570   -1.9470 c         1 MOL      0.558806
     35 O7         -2.7680   -1.5380   -2.2110 o         1 MOL     -0.680400
     36 O8         -2.5680    0.3580   -1.3010 o         1 MOL     -0.680400
     37 H13        -4.3080    0.5900    0.5630 hn        1 MOL      0.356279
     38 H14        -6.5470    0.3780   -1.4110 h1        1 MOL      0.102254
     39 H15        -4.7660    0.8550   -2.8510 hc        1 MOL      0.028394
     40 H16        -5.1170   -0.8540   -2.9230 hc        1 MOL      0.028394
     41 N4         -6.6080   -2.1810   -0.9120 n         1 MOL     -0.276906
     42 C14        -6.9260   -3.5900   -0.7370 c3        1 MOL     -0.086764
     43 C15        -6.5350   -4.4250   -1.9170 c         1 MOL      0.495570
     44 O9         -7.2800   -4.7350   -2.8690 o         1 MOL     -0.548443
     45 H17        -7.4530   -1.6940   -1.1920 hn        1 MOL      0.256056
     46 H18        -7.9980   -3.6800   -0.5900 h1        1 MOL      0.094296
     47 H19        -6.4320   -3.9630    0.1530 h1        1 MOL      0.094296
     48 N5         -5.3090   -5.0180   -1.9630 n         1 MOL     -0.409358
     49 C16        -4.1310   -4.7490   -1.1860 c3        1 MOL     -0.073046
     50 C17        -4.1770   -5.3400    0.2510 c         1 MOL      0.695623
     51 O10        -4.7080   -6.4120    0.4600 o         1 MOL     -0.590261
     52 C18        -2.9230   -5.3500   -1.9120 c3        1 MOL     -0.261354
     53 C19        -1.6220   -4.6410   -1.5830 c         1 MOL      0.575622
     54 N6         -0.6050   -4.8410   -2.3670 n         1 MOL     -0.546797
     55 O11        -1.4680   -3.8550   -0.6850 o         1 MOL     -0.552437
     56 H20        -5.1950   -5.7550   -2.6390 hn        1 MOL      0.292201
     57 H21        -3.9480   -3.6720   -1.1180 h1        1 MOL      0.181544
     58 H22        -3.0630   -5.1760   -2.9740 hc        1 MOL      0.098824
     59 H23        -2.6470   -6.3860   -1.7380 hc        1 MOL      0.098824
     60 H24        -0.5720   -5.5030   -3.1330 hn        1 MOL      0.290891
     61 H25         0.2510   -4.3840   -2.0910 hn        1 MOL      0.290891
     62 N7         -3.5600   -4.5720    1.1640 n         1 MOL     -0.341156
     63 C20        -3.3150   -5.0640    2.5210 c3        1 MOL     -0.211866
     64 C21        -1.8080   -5.2740    2.9080 c         1 MOL      0.510598
     65 O12        -1.4580   -5.7680    3.9980 o         1 MOL     -0.586196
     66 H26        -2.9590   -3.8270    0.8480 hn        1 MOL      0.250076
     67 H27        -3.7900   -6.0270    2.6610 h1        1 MOL      0.110354
     68 H28        -3.7600   -4.3090    3.1760 h1        1 MOL      0.110354
     69 N8         -0.8020   -4.7770    2.1510 n         1 MOL     -0.076316
     70 C22         0.6270   -4.8230    2.3570 c3        1 MOL     -0.129831
     71 C23         1.2620   -3.4850    2.0380 c         1 MOL      0.134092
     72 O13         0.7720   -2.6420    1.2490 o         1 MOL     -0.237983
     73 C24         1.3860   -5.8260    1.4360 c3        1 MOL      0.554953
     74 C25         1.1970   -7.3130    1.7240 c3        1 MOL     -0.399056
     75 O14         0.9000   -5.7380    0.0810 oh        1 MOL     -0.727781
     76 H29        -1.0940   -4.3590    1.2820 hn        1 MOL      0.081471
     77 H30         0.8360   -5.0960    3.3920 h1        1 MOL      0.093310
     78 H31         2.4640   -5.6850    1.4950 h1        1 MOL      0.005658
     79 H32         1.4690   -5.2060   -0.4790 ho        1 MOL      0.446844
     80 H33         1.8960   -7.8540    1.0830 hc        1 MOL      0.077170
     81 H34         1.4730   -7.3620    2.7780 hc        1 MOL      0.077170
     82 H35         0.1410   -7.5450    1.6550 hc        1 MOL      0.077170
     83 N9          2.3450   -3.2130    2.7500 n         1 MOL     -0.204790
     84 C26         3.1850   -1.9800    2.6220 c3        1 MOL      0.072352
     85 C27         4.1760   -2.3090    1.4510 c         1 MOL      0.280332
     86 O15         5.0120   -3.2390    1.6260 o         1 MOL     -0.583174
     87 C28         3.9920   -1.5050    3.9080 c3        1 MOL      0.339655
     88 C29         4.4800   -0.0350    3.7550 c3        1 MOL      0.074724
     89 C30         3.0420   -1.5740    5.1350 c3        1 MOL     -0.366255
     90 C31         5.3170    0.4310    4.9350 c3        1 MOL     -0.185385
     91 H36         2.8470   -3.8650    3.3270 hn        1 MOL      0.218459
     92 H37         2.5610   -1.1610    2.2630 h1        1 MOL     -0.057677
     93 H38         4.8430   -2.1760    3.9990 hc        1 MOL     -0.056128
     94 H39         3.5630    0.5510    3.6590 hc        1 MOL     -0.035832
     95 H40         5.1110    0.0240    2.8690 hc        1 MOL     -0.035832
     96 H41         2.6790   -2.6010    5.2490 hc        1 MOL      0.074123
     97 H42         3.5770   -1.3770    6.0660 hc        1 MOL      0.074123
     98 H43         2.2000   -0.8820    5.0900 hc        1 MOL      0.074123
     99 H44         4.7340    0.8520    5.7620 hc        1 MOL      0.034394
    100 H45         5.8630   -0.4280    5.3170 hc        1 MOL      0.034394
    101 H46         5.9810    1.2260    4.5810 hc        1 MOL      0.034394
    102 N10         4.0160   -1.7510    0.3140 n         1 MOL     -0.286291
    103 C32         4.6530   -2.1640   -0.9580 c3        1 MOL      0.442041
    104 C33         5.7370   -1.2030   -1.4350 c         1 MOL      0.408270
    105 O16         6.1620   -1.2640   -2.5570 o         1 MOL     -0.518113
    106 C34         3.7600   -2.6000   -2.0550 c3        1 MOL     -0.609617
    107 C35         2.5330   -3.3560   -1.7010 c         1 MOL      0.934771
    108 O17         2.6770   -4.5320   -1.2590 o         1 MOL     -0.739331
    109 O18         1.3880   -2.8990   -1.7000 o         1 MOL     -0.739331
    110 H47         3.2280   -1.1230    0.2600 hn        1 MOL      0.244812
    111 H48         5.2280   -3.0710   -0.7600 h1        1 MOL      0.045218
    112 H49         4.4310   -3.1290   -2.7300 hc        1 MOL      0.135444
    113 H50         3.4110   -1.6430   -2.4580 hc        1 MOL      0.135444
    114 N11         6.1190   -0.1900   -0.6500 n         1 MOL     -0.619974
    115 C36         6.9970    0.8800   -1.1180 c3        1 MOL      0.539056
    116 C37         6.6500    2.1830   -0.4000 c         1 MOL      0.265225
    117 O19         6.5040    2.2070    0.8370 o         1 MOL     -0.493718
    118 C38         8.4150    0.3760   -0.8100 c3        1 MOL     -0.344314
    119 C39         9.5350    1.1290   -1.5340 ca        1 MOL      0.179925
    120 C40        10.4210    1.9400   -0.8720 ca        1 MOL     -0.201752
    121 C41         9.6660    0.9110   -2.9040 ca        1 MOL     -0.201752
    122 C42        11.3550    2.7160   -1.6110 ca        1 MOL     -0.094134
    123 C43        10.5740    1.7170   -3.6560 ca        1 MOL     -0.094134
    124 C44        11.5120    2.5200   -2.9570 ca        1 MOL     -0.135170
    125 H51         5.5950   -0.0240    0.1960 hn        1 MOL      0.289128
    126 H52         6.8730    0.8940   -2.2080 h1        1 MOL     -0.045137
    127 H53         8.5360   -0.6930   -1.0030 hc        1 MOL      0.121217
    128 H54         8.6280    0.4550    0.2570 hc        1 MOL      0.121217
    129 H55        10.2590    2.1310    0.1750 ha        1 MOL      0.124979
    130 H56         8.9620    0.2500   -3.3900 ha        1 MOL      0.124979
    131 H57        12.0300    3.3870   -1.1130 ha        1 MOL      0.101261
    132 H58        10.6080    1.7300   -4.7370 ha        1 MOL      0.101261
    133 H59        12.2020    3.1480   -3.5010 ha        1 MOL      0.101073
    134 N12         6.4990    3.3240   -1.1440 n         1 MOL     -0.190666
    135 C45         6.1890    4.6510   -0.5060 c3        1 MOL      0.183592
    136 C46         4.8600    4.8790    0.2470 c         1 MOL      0.288727
    137 O20         4.8410    5.9240    0.8250 o         1 MOL     -0.514061
    138 C47         6.0240    5.5440   -1.7330 c3        1 MOL     -0.132032
    139 C48         6.9610    4.9240   -2.7330 c3        1 MOL     -0.063705
    140 C49         6.9550    3.4320   -2.5090 c3        1 MOL     -0.112752
    141 H60         7.0370    5.0300    0.0650 h1        1 MOL      0.059276
    142 H61         4.9970    5.4740   -2.0860 hc        1 MOL      0.077533
    143 H62         6.3280    6.5600   -1.4730 hc        1 MOL      0.077533
    144 H63         6.7450    5.1510   -3.7760 hc        1 MOL      0.033756
    145 H64         7.9220    5.3110   -2.4120 hc        1 MOL      0.033756
    146 H65         6.3170    2.8540   -3.1710 h1        1 MOL      0.101081
    147 H66         8.0310    3.2300   -2.5180 h1        1 MOL      0.101081
    148 N13         3.9180    3.9960    0.3580 n         1 MOL     -0.231186
    149 C50         2.6030    4.2730    0.8670 c3        1 MOL     -0.046611
    150 C51         2.5290    4.6380    2.3400 c         1 MOL      0.443574
    151 O21         1.4800    5.1720    2.7890 o         1 MOL     -0.515505
    152 C52         1.7230    3.0950    0.5340 c3        1 MOL     -0.336614
    153 C53         1.9960    1.8810    1.4420 c3        1 MOL     -0.029287
    154 C54         1.2900    0.6210    0.8060 c         1 MOL      0.697796
    155 O22         1.7820   -0.0720   -0.0900 o         1 MOL     -0.732856
    156 O23         0.0810    0.3250    1.0640 o         1 MOL     -0.732856
    157 H67         3.9730    3.0910   -0.0900 hn        1 MOL      0.230149
    158 H68         2.1150    5.1230    0.3930 h1        1 MOL      0.122932
    159 H69         1.7510    2.7650   -0.5040 hc        1 MOL      0.143348
    160 H70         0.7140    3.4830    0.7120 hc        1 MOL      0.143348
    161 H71         1.6180    2.0230    2.4550 hc        1 MOL      0.043642
    162 H72         3.0610    1.7020    1.4520 hc        1 MOL      0.043642
    163 N14         3.5950    4.4380    3.1670 n         1 MOL     -0.168466
    164 C55         3.7000    4.8820    4.5540 c3        1 MOL     -0.151317
    165 H73         2.7220    5.2110    4.9040 h1        1 MOL      0.078673
    166 H74         4.0480    4.0560    5.1740 h1        1 MOL      0.078673
    167 H75         4.4060    5.7090    4.6190 h1        1 MOL      0.078673
    168 H76         4.3820    3.9250    2.7860 hn        1 MOL      0.219882
    169 Ca1        -0.5440   -1.3280   -0.8300 Ca        1 MOL      1.758030
    170 O24        -0.6320   -1.8530   -3.9800 oh        1 MOL     -0.836086
    171 H77        -1.5880   -1.8780   -3.9830 ho        1 MOL      0.394116
    172 H78        -0.4100   -1.0500   -4.4450 ho        1 MOL      0.394116
    173 O25         0.3620    0.4360   -2.6430 oh        1 MOL     -0.836086
    174 H79        -0.3830    0.6110   -3.2210 ho        1 MOL      0.394116
    175 H80         1.1270    0.6610   -3.1670 ho        1 MOL      0.394116
    176 O26        -2.0980   -1.8170    1.3560 oh        1 MOL     -0.836086
    177 H81        -3.0270   -2.0500    1.3910 ho        1 MOL      0.394116
    178 H82        -1.9820   -1.1750    2.0550 ho        1 MOL      0.394116
@<TRIPOS>BOND
     1    1    2 1   
     2    1    4 1   
     3    1    5 1   
     4    1    6 1   
     5    2    3 2   
     6    2    7 1   
     7    7    8 1   
     8    7   15 1   
     9    8    9 1   
    10    8   11 1   
    11    8   16 1   
    12    9   10 2   
    13    9   19 1   
    14   11   12 1   
    15   11   17 1   
    16   11   18 1   
    17   12   13 1   
    18   12   14 1   
    19   19   20 1   
    20   19   24 1   
    21   20   21 1   
    22   20   23 1   
    23   20   25 1   
    24   21   22 2   
    25   21   29 1   
    26   23   26 1   
    27   23   27 1   
    28   23   28 1   
    29   29   30 1   
    30   29   37 1   
    31   30   31 1   
    32   30   33 1   
    33   30   38 1   
    34   31   32 2   
    35   31   41 1   
    36   33   34 1   
    37   33   39 1   
    38   33   40 1   
    39   34   35 1   
    40   34   36 1   
    41   41   42 1   
    42   41   45 1   
    43   42   43 1   
    44   42   46 1   
    45   42   47 1   
    46   43   44 2   
    47   43   48 1   
    48   48   49 1   
    49   48   56 1   
    50   49   50 1   
    51   49   52 1   
    52   49   57 1   
    53   50   51 2   
    54   50   62 1   
    55   52   53 1   
    56   52   58 1   
    57   52   59 1   
    58   53   54 1   
    59   53   55 2   
    60   54   60 1   
    61   54   61 1   
    62   62   63 1   
    63   62   66 1   
    64   63   64 1   
    65   63   67 1   
    66   63   68 1   
    67   64   65 2   
    68   64   69 1   
    69   69   70 1   
    70   69   76 1   
    71   70   71 1   
    72   70   73 1   
    73   70   77 1   
    74   71   72 2   
    75   71   83 1   
    76   73   74 1   
    77   73   75 1   
    78   73   78 1   
    79   74   80 1   
    80   74   81 1   
    81   74   82 1   
    82   75   79 1   
    83   83   84 1   
    84   83   91 1   
    85   84   85 1   
    86   84   87 1   
    87   84   92 1   
    88   85   86 2   
    89   85  102 1   
    90   87   88 1   
    91   87   89 1   
    92   87   93 1   
    93   88   90 1   
    94   88   94 1   
    95   88   95 1   
    96   89   96 1   
    97   89   97 1   
    98   89   98 1   
    99   90   99 1   
   100   90  100 1   
   101   90  101 1   
   102  102  103 1   
   103  102  110 1   
   104  103  104 1   
   105  103  106 1   
   106  103  111 1   
   107  104  105 2   
   108  104  114 1   
   109  106  107 1   
   110  106  112 1   
   111  106  113 1   
   112  107  108 1   
   113  107  109 1   
   114  114  115 1   
   115  114  125 1   
   116  115  116 1   
   117  115  118 1   
   118  115  126 1   
   119  116  117 2   
   120  116  134 1   
   121  118  119 1   
   122  118  127 1   
   123  118  128 1   
   124  119  120 ar  
   125  119  121 ar  
   126  120  122 ar  
   127  120  129 1   
   128  121  123 ar  
   129  121  130 1   
   130  122  124 ar  
   131  122  131 1   
   132  123  124 ar  
   133  123  132 1   
   134  124  133 1   
   135  134  135 1   
   136  134  140 1   
   137  135  136 1   
   138  135  138 1   
   139  135  141 1   
   140  136  137 2   
   141  136  148 1   
   142  138  139 1   
   143  138  142 1   
   144  138  143 1   
   145  139  140 1   
   146  139  144 1   
   147  139  145 1   
   148  140  146 1   
   149  140  147 1   
   150  148  149 1   
   151  148  157 1   
   152  149  150 1   
   153  149  152 1   
   154  149  158 1   
   155  150  151 2   
   156  150  163 1   
   157  152  153 1   
   158  152  159 1   
   159  152  160 1   
   160  153  154 1   
   161  153  161 1   
   162  153  162 1   
   163  154  155 1   
   164  154  156 1   
   165  163  164 1   
   166  163  168 1   
   167  164  165 1   
   168  164  166 1   
   169  164  167 1   
   170  170  171 1   
   171  170  172 1   
   172  173  174 1   
   173  173  175 1   
   174  176  177 1   
   175  176  178 1   
@<TRIPOS>SUBSTRUCTURE
     1 MOL         1 TEMP              0 ****  ****    0 ROOT
