@<TRIPOS>MOLECULE
MOL
  181   177     1     0     0
SMALL
resp


@<TRIPOS>ATOM
      1 C1         -5.7290   -5.6230   -5.0150 c3        1 MOL     -0.382289
      2 C2         -5.1830   -4.2790   -4.4190 c         1 MOL      0.665203
      3 O1         -4.1820   -3.7740   -4.9730 o         1 MOL     -0.538483
      4 H1         -6.5860   -5.4140   -5.6550 hc        1 MOL      0.101110
      5 H2         -4.9470   -6.1060   -5.6020 hc        1 MOL      0.101110
      6 H3         -6.0350   -6.2830   -4.2030 hc        1 MOL      0.101110
      7 N1         -5.6610   -3.7170   -3.2360 n         1 MOL     -0.575141
      8 C3         -6.9630   -3.8350   -2.5620 c3        1 MOL      0.048840
      9 C4         -6.9230   -3.6640   -1.0880 c         1 MOL      0.612963
     10 O2         -6.0600   -2.9230   -0.6060 o         1 MOL     -0.558900
     11 C5         -7.9600   -2.7460   -3.1640 c3        1 MOL      0.012862
     12 C6         -7.5160   -1.3050   -3.2110 c         1 MOL      0.662264
     13 O3         -8.1360   -0.5900   -4.0030 o         1 MOL     -0.692179
     14 O4         -6.4880   -0.9310   -2.6170 o         1 MOL     -0.692179
     15 H4         -4.9340   -3.1630   -2.7990 hn        1 MOL      0.315919
     16 H5         -7.4450   -4.7610   -2.8740 h1        1 MOL      0.013910
     17 H6         -8.8070   -2.9010   -2.4980 hc        1 MOL     -0.013256
     18 H7         -8.2640   -3.0990   -4.1520 hc        1 MOL     -0.013256
     19 N2         -7.7300   -4.5810   -0.4450 n         1 MOL     -0.614211
     20 C7         -7.9180   -4.8070    0.9580 c3        1 MOL      0.323151
     21 C8         -8.2160   -3.7000    1.8890 c         1 MOL      0.393608
     22 O5         -8.8850   -3.7830    2.8760 o         1 MOL     -0.551447
     23 C9         -6.8170   -5.6660    1.6380 c3        1 MOL     -0.661338
     24 H8         -8.2380   -5.2620   -0.9960 hn        1 MOL      0.354900
     25 H9         -8.8150   -5.4290    1.0000 h1        1 MOL      0.011451
     26 H10        -6.7910   -6.6030    1.0830 hc        1 MOL      0.200785
     27 H11        -5.9450   -5.0160    1.6390 hc        1 MOL      0.200785
     28 H12        -6.9460   -5.8070    2.7140 hc        1 MOL      0.200785
     29 N3         -7.8400   -2.4940    1.5160 n         1 MOL     -0.195470
     30 C10        -7.9870   -1.2950    2.3240 c3        1 MOL      0.017130
     31 C11        -8.0560   -0.0460    1.5000 c         1 MOL      0.557890
     32 O6         -7.2840    0.2090    0.5660 o         1 MOL     -0.569485
     33 C12        -6.8420   -1.1100    3.3270 c3        1 MOL      0.118167
     34 C13        -5.4660   -1.5200    2.9020 c         1 MOL      0.632848
     35 O7         -5.1750   -1.3560    1.7420 o         1 MOL     -0.687718
     36 O8         -4.5810   -1.9240    3.7560 o         1 MOL     -0.687718
     37 H13        -7.2910   -2.4140    0.6740 hn        1 MOL      0.084457
     38 H14        -8.9570   -1.3150    2.8350 h1        1 MOL      0.019558
     39 H15        -7.0740   -1.8270    4.1230 hc        1 MOL     -0.027895
     40 H16        -6.9120   -0.1250    3.7830 hc        1 MOL     -0.027895
     41 N4         -8.8680    0.8870    2.0470 n         1 MOL     -0.511153
     42 C14        -8.9540    2.2910    1.5900 c3        1 MOL     -0.105521
     43 C15        -7.5820    2.9400    1.6380 c         1 MOL      0.423532
     44 O9         -7.2740    3.9090    0.8090 o         1 MOL     -0.536615
     45 H17        -9.2630    0.6750    2.9470 hn        1 MOL      0.317013
     46 H18        -9.6290    2.8560    2.2390 h1        1 MOL      0.138540
     47 H19        -9.4140    2.4140    0.6160 h1        1 MOL      0.138540
     48 N5         -6.7120    2.5060    2.5760 n         1 MOL     -0.402688
     49 C16        -5.3750    2.9800    2.8500 c3        1 MOL      0.028521
     50 C17        -4.4380    2.7490    1.6750 c         1 MOL      0.676877
     51 O10        -4.4840    1.7330    0.9280 o         1 MOL     -0.623273
     52 C18        -4.7420    2.3150    4.0880 c3        1 MOL     -0.529696
     53 C19        -5.5430    2.1780    5.3650 c         1 MOL      0.794257
     54 N6         -6.4570    3.0440    5.7450 n         1 MOL     -0.850725
     55 O11        -5.2750    1.2980    6.1900 o         1 MOL     -0.551242
     56 H20        -7.0460    1.7850    3.1990 hn        1 MOL      0.290587
     57 H21        -5.4490    4.0470    3.0130 h1        1 MOL      0.082205
     58 H22        -3.8860    2.9770    4.1720 hc        1 MOL      0.176782
     59 H23        -4.3360    1.3240    3.8640 hc        1 MOL      0.176782
     60 H24        -6.6320    3.8740    5.1950 hn        1 MOL      0.376282
     61 H25        -6.8710    2.9300    6.6630 hn        1 MOL      0.376282
     62 N7         -3.5920    3.8040    1.4550 n         1 MOL     -0.523023
     63 C20        -2.6380    3.8290    0.3380 c3        1 MOL      0.289085
     64 C21        -2.4960    5.2720   -0.1460 c         1 MOL      0.615111
     65 O12        -3.1410    6.1590    0.4080 o         1 MOL     -0.578255
     66 H26        -3.6130    4.5660    2.1080 hn        1 MOL      0.297055
     67 H27        -3.1380    3.3090   -0.4830 h1        1 MOL     -0.034519
     68 H28        -1.6510    3.4070    0.5090 h1        1 MOL     -0.034519
     69 N8         -1.7060    5.4720   -1.1960 n         1 MOL     -0.638010
     70 C22        -0.9160    4.5640   -2.1080 c3        1 MOL      0.028628
     71 C23         0.3720    4.0330   -1.3860 c         1 MOL      0.526331
     72 O13         0.8800    4.4570   -0.3500 o         1 MOL     -0.515140
     73 C24        -0.5660    5.2430   -3.4360 c3        1 MOL      0.393627
     74 C25        -1.8570    5.4410   -4.3800 c3        1 MOL     -0.209136
     75 O14         0.0790    6.4910   -3.3060 oh        1 MOL     -0.619953
     76 H29        -1.7230    6.4570   -1.4330 hn        1 MOL      0.342133
     77 H30        -1.5830    3.7510   -2.4080 h1        1 MOL      0.051021
     78 H31         0.0200    4.4940   -3.9860 h1        1 MOL     -0.012736
     79 H32         0.9380    6.3840   -2.8930 ho        1 MOL      0.419736
     80 H33        -1.6020    5.9160   -5.3250 hc        1 MOL      0.058633
     81 H34        -2.4320    4.5370   -4.5980 hc        1 MOL      0.058633
     82 H35        -2.5620    6.1350   -3.9130 hc        1 MOL      0.058633
     83 N9          0.9320    2.9640   -1.9900 n         1 MOL     -0.563652
     84 C26         2.1260    2.2530   -1.3850 c3        1 MOL      0.283225
     85 C27         3.0590    1.8440   -2.4960 c         1 MOL      0.476004
     86 O15         2.6830    1.6480   -3.6720 o         1 MOL     -0.587842
     87 C28         1.6190    0.9700   -0.7590 c3        1 MOL     -0.036277
     88 C29         0.6800    0.0460   -1.5790 c3        1 MOL      0.146971
     89 C30         1.1200    1.2210    0.6200 c3        1 MOL     -0.450711
     90 C31         0.5630   -1.3950   -1.0430 c3        1 MOL     -0.146692
     91 H36         0.2930    2.4510   -2.5730 hn        1 MOL      0.236188
     92 H37         2.6180    2.7860   -0.5740 h1        1 MOL      0.108252
     93 H38         2.5260    0.3640   -0.6800 hc        1 MOL      0.006988
     94 H39         0.9050    0.0100   -2.6470 hc        1 MOL     -0.026545
     95 H40        -0.2710    0.5710   -1.4450 hc        1 MOL     -0.026545
     96 H41         0.3360    1.9660    0.4730 hc        1 MOL      0.129989
     97 H42         0.7500    0.3060    1.0770 hc        1 MOL      0.129989
     98 H43         1.8970    1.5990    1.2770 hc        1 MOL      0.129989
     99 H44         1.4050   -2.0160   -1.3530 hc        1 MOL      0.031580
    100 H45         0.5230   -1.4270    0.0440 hc        1 MOL      0.031580
    101 H46        -0.4000   -1.8240   -1.3080 hc        1 MOL      0.031580
    102 N10         4.3590    1.6360   -2.2720 n         1 MOL     -0.418071
    103 C32         5.0910    1.9550   -1.0730 c3        1 MOL      0.307482
    104 C33         6.3640    1.0840   -0.9340 c         1 MOL      0.462238
    105 O16         6.6480    0.1960   -1.7410 o         1 MOL     -0.513668
    106 C34         5.3980    3.4620   -1.1570 c3        1 MOL     -0.349159
    107 C35         6.0040    3.8620   -2.5060 c         1 MOL      0.697045
    108 O17         6.7330    3.0160   -3.0670 o         1 MOL     -0.706649
    109 O18         5.6680    4.9570   -3.0730 o         1 MOL     -0.706649
    110 H47         4.9190    1.3230   -3.0460 hn        1 MOL      0.317048
    111 H48         4.5030    1.6970   -0.1900 h1        1 MOL     -0.034754
    112 H49         6.0180    3.8300   -0.3370 hc        1 MOL      0.031672
    113 H50         4.4540    4.0030   -1.0490 hc        1 MOL      0.031672
    114 N11         7.0660    1.3770    0.1310 n         1 MOL     -0.448120
    115 C36         8.2220    0.6900    0.6550 c3        1 MOL      0.420070
    116 C37         7.8390    0.0030    2.0560 c         1 MOL      0.015701
    117 O19         7.4520    0.7840    2.9340 o         1 MOL     -0.468673
    118 C38         9.4310    1.6120    0.7940 c3        1 MOL     -0.290405
    119 C39        10.7670    0.9780    1.0110 ca        1 MOL      0.216394
    120 C40        11.2470    1.0290    2.3350 ca        1 MOL     -0.269653
    121 C41        11.5300    0.4270   -0.0480 ca        1 MOL     -0.269653
    122 C42        12.5890    0.5880    2.5150 ca        1 MOL     -0.006209
    123 C43        12.8520    0.0370    0.2250 ca        1 MOL     -0.006209
    124 C44        13.4000    0.0640    1.4990 ca        1 MOL     -0.267777
    125 H51         6.6780    2.1520    0.6510 hn        1 MOL      0.289188
    126 H52         8.5960   -0.0740   -0.0180 h1        1 MOL      0.002574
    127 H53         9.1770    2.3590    1.5540 hc        1 MOL      0.087599
    128 H54         9.5200    2.2590   -0.0740 hc        1 MOL      0.087599
    129 H55        10.7110    1.3890    3.1920 ha        1 MOL      0.164575
    130 H56        11.0420    0.3500   -1.0140 ha        1 MOL      0.164575
    131 H57        12.8870    0.7260    3.5450 ha        1 MOL      0.070281
    132 H58        13.4640   -0.3580   -0.5740 ha        1 MOL      0.070281
    133 H59        14.3980   -0.3460    1.5690 ha        1 MOL      0.134166
    134 N12         8.1350   -1.2540    2.4000 n         1 MOL      0.226358
    135 C45         8.9700   -2.1600    1.5450 c3        1 MOL      0.113653
    136 C46         8.3100   -2.7580    0.3430 c         1 MOL      0.270434
    137 O20         8.8620   -2.7860   -0.7610 o         1 MOL     -0.541488
    138 C47         9.5010   -3.2380    2.5530 c3        1 MOL     -0.116199
    139 C48         9.1700   -2.7320    3.9720 c3        1 MOL      0.065893
    140 C49         8.1040   -1.7450    3.7650 c3        1 MOL     -0.192925
    141 H60         9.8600   -1.6050    1.2370 h1        1 MOL      0.057338
    142 H61         9.0590   -4.2360    2.4510 hc        1 MOL      0.031402
    143 H62        10.5820   -3.2570    2.4220 hc        1 MOL      0.031402
    144 H63         8.8450   -3.5100    4.6710 hc        1 MOL     -0.015885
    145 H64        10.0080   -2.1840    4.3890 hc        1 MOL     -0.015885
    146 H65         7.1440   -2.2430    3.9250 h1        1 MOL      0.089994
    147 H66         8.1840   -0.9090    4.4570 h1        1 MOL      0.089994
    148 N13         6.9950   -3.1380    0.4540 n         1 MOL     -0.073034
    149 C50         6.1710   -3.5200   -0.6810 c3        1 MOL     -0.013527
    150 C51         6.4390   -5.0330   -0.8820 c         1 MOL      0.329343
    151 O21         6.0680   -5.9130   -0.0620 o         1 MOL     -0.540386
    152 C52         4.6800   -3.3270   -0.3010 c3        1 MOL     -0.126158
    153 C53         4.3150   -1.8480    0.1090 c3        1 MOL      0.155673
    154 C54         4.6830   -1.4230    1.5540 c         1 MOL      0.595953
    155 O22         4.2580   -0.2690    1.9190 o         1 MOL     -0.655199
    156 O23         5.2220   -2.1610    2.3690 o         1 MOL     -0.655199
    157 H67         6.6040   -3.1710    1.3890 hn        1 MOL      0.153473
    158 H68         6.4430   -2.8900   -1.5280 h1        1 MOL      0.118417
    159 H69         4.3130   -4.0290    0.4560 hc        1 MOL      0.048594
    160 H70         4.0600   -3.6640   -1.1250 hc        1 MOL      0.048594
    161 H71         3.2380   -1.8610   -0.0350 hc        1 MOL     -0.082039
    162 H72         4.7040   -1.0710   -0.5580 hc        1 MOL     -0.082039
    163 N14         7.1030   -5.4560   -2.0050 n         1 MOL     -0.261808
    164 C55         7.6820   -4.7050   -3.1360 c3        1 MOL     -0.117275
    165 H73         8.7440   -4.9350   -3.2190 h1        1 MOL      0.069760
    166 H74         7.1760   -4.9880   -4.0590 h1        1 MOL      0.069760
    167 H75         7.5550   -3.6360   -2.9650 h1        1 MOL      0.069760
    168 H76         7.1330   -6.4600   -2.1020 hn        1 MOL      0.231574
    169 Ca1        -4.9950   -0.3460   -0.5360 Ca        1 MOL      1.749929
    170 O24        -6.2170    1.9390   -1.3340 oh        1 MOL     -0.782055
    171 H77        -6.4630    2.5990   -0.6900 ho        1 MOL      0.395102
    172 H78        -6.9150    1.9570   -1.9780 ho        1 MOL      0.395102
    173 O25        -2.6260   -0.9350    0.4220 oh        1 MOL     -0.782055
    174 H79        -2.4910   -1.8190    0.7750 ho        1 MOL      0.395102
    175 H80        -2.1700   -0.3660    1.0470 ho        1 MOL      0.395102
    176 O26        -3.4730    1.3200   -2.4080 oh        1 MOL     -0.782055
    177 H81        -4.0570    1.9550   -2.8100 ho        1 MOL      0.395102
    178 H82        -2.6860    1.3320   -2.9670 ho        1 MOL      0.395102
    179 O27        -3.4780   -2.1970   -1.9910 oh        1 MOL     -0.782055
    180 H83        -3.4550   -2.7950   -1.2480 ho        1 MOL      0.395102
    181 H84        -2.8390   -2.5550   -2.6120 ho        1 MOL      0.395102
@<TRIPOS>BOND
     1    1    2 1   
     2    1    4 1   
     3    1    5 1   
     4    1    6 1   
     5    2    3 2   
     6    2    7 1   
     7    7    8 1   
     8    7   15 1   
     9    8    9 1   
    10    8   11 1   
    11    8   16 1   
    12    9   10 2   
    13    9   19 1   
    14   11   12 1   
    15   11   17 1   
    16   11   18 1   
    17   12   13 1   
    18   12   14 1   
    19   19   20 1   
    20   19   24 1   
    21   20   21 1   
    22   20   23 1   
    23   20   25 1   
    24   21   22 2   
    25   21   29 1   
    26   23   26 1   
    27   23   27 1   
    28   23   28 1   
    29   29   30 1   
    30   29   37 1   
    31   30   31 1   
    32   30   33 1   
    33   30   38 1   
    34   31   32 2   
    35   31   41 1   
    36   33   34 1   
    37   33   39 1   
    38   33   40 1   
    39   34   35 1   
    40   34   36 1   
    41   41   42 1   
    42   41   45 1   
    43   42   43 1   
    44   42   46 1   
    45   42   47 1   
    46   43   44 2   
    47   43   48 1   
    48   48   49 1   
    49   48   56 1   
    50   49   50 1   
    51   49   52 1   
    52   49   57 1   
    53   50   51 2   
    54   50   62 1   
    55   52   53 1   
    56   52   58 1   
    57   52   59 1   
    58   53   54 1   
    59   53   55 2   
    60   54   60 1   
    61   54   61 1   
    62   62   63 1   
    63   62   66 1   
    64   63   64 1   
    65   63   67 1   
    66   63   68 1   
    67   64   65 2   
    68   64   69 1   
    69   69   70 1   
    70   69   76 1   
    71   70   71 1   
    72   70   73 1   
    73   70   77 1   
    74   71   72 2   
    75   71   83 1   
    76   73   74 1   
    77   73   75 1   
    78   73   78 1   
    79   74   80 1   
    80   74   81 1   
    81   74   82 1   
    82   75   79 1   
    83   83   84 1   
    84   83   91 1   
    85   84   85 1   
    86   84   87 1   
    87   84   92 1   
    88   85   86 2   
    89   85  102 1   
    90   87   88 1   
    91   87   89 1   
    92   87   93 1   
    93   88   90 1   
    94   88   94 1   
    95   88   95 1   
    96   89   96 1   
    97   89   97 1   
    98   89   98 1   
    99   90   99 1   
   100   90  100 1   
   101   90  101 1   
   102  102  103 1   
   103  102  110 1   
   104  103  104 1   
   105  103  106 1   
   106  103  111 1   
   107  104  105 2   
   108  104  114 1   
   109  106  107 1   
   110  106  112 1   
   111  106  113 1   
   112  107  108 1   
   113  107  109 1   
   114  114  115 1   
   115  114  125 1   
   116  115  116 1   
   117  115  118 1   
   118  115  126 1   
   119  116  117 2   
   120  116  134 1   
   121  118  119 1   
   122  118  127 1   
   123  118  128 1   
   124  119  120 ar  
   125  119  121 ar  
   126  120  122 ar  
   127  120  129 1   
   128  121  123 ar  
   129  121  130 1   
   130  122  124 ar  
   131  122  131 1   
   132  123  124 ar  
   133  123  132 1   
   134  124  133 1   
   135  134  135 1   
   136  134  140 1   
   137  135  136 1   
   138  135  138 1   
   139  135  141 1   
   140  136  137 2   
   141  136  148 1   
   142  138  139 1   
   143  138  142 1   
   144  138  143 1   
   145  139  140 1   
   146  139  144 1   
   147  139  145 1   
   148  140  146 1   
   149  140  147 1   
   150  148  149 1   
   151  148  157 1   
   152  149  150 1   
   153  149  152 1   
   154  149  158 1   
   155  150  151 2   
   156  150  163 1   
   157  152  153 1   
   158  152  159 1   
   159  152  160 1   
   160  153  154 1   
   161  153  161 1   
   162  153  162 1   
   163  154  155 1   
   164  154  156 1   
   165  163  164 1   
   166  163  168 1   
   167  164  165 1   
   168  164  166 1   
   169  164  167 1   
   170  170  171 1   
   171  170  172 1   
   172  173  174 1   
   173  173  175 1   
   174  176  177 1   
   175  176  178 1   
   176  179  180 1   
   177  179  181 1   
@<TRIPOS>SUBSTRUCTURE
     1 MOL         1 TEMP              0 ****  ****    0 ROOT
