@<TRIPOS>MOLECULE
MOL
  191   184     1     0     0
SMALL
resp


@<TRIPOS>ATOM
      1 C1         -5.9240   -1.6770    4.0370 c3        1 MOL     -0.394471
      2 C2         -5.9830   -1.7150    2.5500 c         1 MOL      0.572163
      3 O1         -5.3050   -0.9200    1.9340 o         1 MOL     -0.543820
      4 H1         -6.5650   -2.4580    4.4450 hc        1 MOL      0.099839
      5 H2         -4.8980   -1.8420    4.3650 hc        1 MOL      0.099839
      6 H3         -6.2670   -0.7050    4.3900 hc        1 MOL      0.099839
      7 N1         -6.9220   -2.4520    2.0410 n         1 MOL     -0.466164
      8 C3         -7.3340   -2.5770    0.6890 c3        1 MOL      0.040525
      9 C4         -7.6620   -1.2660   -0.1440 c         1 MOL      0.488411
     10 O2         -8.0860   -1.3060   -1.2630 o         1 MOL     -0.439217
     11 C5         -6.4360   -3.4740   -0.1420 c3        1 MOL     -0.231202
     12 C6         -7.1440   -4.0390   -1.3510 c         1 MOL      0.714782
     13 O3         -8.2980   -4.4490   -1.2010 o         1 MOL     -0.644217
     14 O4         -6.5770   -4.0280   -2.4480 o         1 MOL     -0.644217
     15 H4         -7.4160   -2.9540    2.7660 hn        1 MOL      0.322184
     16 H5         -8.3360   -2.9920    0.7620 h1        1 MOL      0.061777
     17 H6         -5.9580   -4.2840    0.4090 hc        1 MOL      0.088079
     18 H7         -5.6910   -2.7660   -0.5010 hc        1 MOL      0.088079
     19 N2         -7.4550   -0.0890    0.4460 n         1 MOL     -0.409025
     20 C7         -7.6790    1.2800   -0.0450 c3        1 MOL     -0.004150
     21 C8         -6.5050    2.1950   -0.4250 c         1 MOL      0.650575
     22 O5         -6.7310    3.3820   -0.6570 o         1 MOL     -0.585677
     23 C9         -8.6190    2.1320    0.8680 c3        1 MOL      0.010394
     24 C10        -8.0980    2.4300    2.3100 c3        1 MOL     -0.104863
     25 C11        -9.1220    2.9120    3.3440 c3        1 MOL     -0.036268
     26 C12        -9.6650    4.3060    2.9200 c3        1 MOL      0.050289
     27 N3        -10.5870    4.7530    4.0300 n4        1 MOL     -0.304973
     28 H8         -7.0620   -0.1340    1.3770 hn        1 MOL      0.220895
     29 H9         -8.1960    1.2250   -1.0080 h1        1 MOL      0.096356
     30 H10        -9.5680    1.6360    1.0690 hc        1 MOL      0.015261
     31 H11        -8.9660    3.0750    0.4350 hc        1 MOL      0.015261
     32 H12        -7.3170    3.1780    2.3070 hc        1 MOL      0.047572
     33 H13        -7.5500    1.5600    2.6690 hc        1 MOL      0.047572
     34 H14        -8.7580    2.9670    4.3700 hc        1 MOL      0.039441
     35 H15        -9.9180    2.1650    3.3980 hc        1 MOL      0.039441
     36 H16       -10.1910    4.2330    1.9710 hx        1 MOL      0.090531
     37 H17        -8.8460    5.0040    2.7700 hx        1 MOL      0.090531
     38 H18       -10.4260    5.7350    4.2010 hn        1 MOL      0.261159
     39 H19       -11.5650    4.6000    3.8550 hn        1 MOL      0.261159
     40 H20       -10.4460    4.2800    4.9050 hn        1 MOL      0.261159
     41 N4         -5.3050    1.5660   -0.4590 n         1 MOL     -0.463775
     42 C13        -4.0800    2.2190   -0.8820 c3        1 MOL     -0.023145
     43 C14        -3.8810    1.9910   -2.4120 c         1 MOL      0.610314
     44 O6         -4.2540    0.9550   -2.8940 o         1 MOL     -0.474164
     45 C15        -2.9250    1.6170   -0.0470 c3        1 MOL     -0.209376
     46 C16        -1.5890    2.3770   -0.2770 c         1 MOL      0.720975
     47 O7         -0.9700    3.0370    0.6300 o         1 MOL     -0.709910
     48 O8         -1.0650    2.2990   -1.3890 o         1 MOL     -0.709910
     49 H21        -5.1290    0.6330   -0.1130 hn        1 MOL      0.294896
     50 H22        -4.1010    3.2700   -0.6090 h1        1 MOL      0.086180
     51 H23        -2.8800    0.5530   -0.2500 hc        1 MOL      0.081328
     52 H24        -3.2100    1.7090    1.0090 hc        1 MOL      0.081328
     53 N5         -3.2930    2.9180   -3.2010 n         1 MOL     -0.585148
     54 C17        -3.0040    2.7160   -4.6450 c3        1 MOL      0.100073
     55 C18        -2.0280    1.5280   -4.8880 c         1 MOL      0.444007
     56 O9         -2.2240    0.9980   -5.9600 o         1 MOL     -0.523555
     57 H25        -3.0240    3.8190   -2.8440 hn        1 MOL      0.335222
     58 H26        -2.5230    3.6070   -5.0640 h1        1 MOL      0.056609
     59 H27        -3.8860    2.6760   -5.2830 h1        1 MOL      0.056609
     60 N6         -1.2580    1.1320   -3.8770 n         1 MOL     -0.393020
     61 C19        -0.3910   -0.1220   -3.9390 c3        1 MOL      0.006704
     62 C20        -1.1820   -1.3770   -3.4620 c         1 MOL      0.423364
     63 O10        -0.5110   -2.4190   -3.2220 o         1 MOL     -0.442038
     64 C21         0.9320    0.1400   -3.1180 c3        1 MOL     -0.262860
     65 C22         1.7380    1.2630   -3.5160 c         1 MOL      0.796832
     66 N7          2.7240    1.0960   -4.3160 n         1 MOL     -0.735322
     67 O11         1.6810    2.3570   -2.9290 o         1 MOL     -0.776248
     68 H28        -1.3070    1.6130   -2.9900 hn        1 MOL      0.248215
     69 H29        -0.1830   -0.3020   -4.9940 h1        1 MOL      0.104762
     70 H30         1.5770   -0.7480   -3.0900 hc        1 MOL      0.116812
     71 H31         0.5030    0.4210   -2.1560 hc        1 MOL      0.116812
     72 H32         2.9300    0.1870   -4.7140 hn        1 MOL      0.361064
     73 H33         3.4030    1.8370   -4.3950 hn        1 MOL      0.361064
     74 N8         -2.5680   -1.3490   -3.2300 n         1 MOL     -0.282585
     75 C23        -3.2790   -2.5980   -2.8460 c3        1 MOL     -0.042102
     76 C24        -2.8160   -3.3060   -1.5560 c         1 MOL      0.338394
     77 O12        -2.9880   -4.5010   -1.3020 o         1 MOL     -0.499687
     78 H34        -3.0660   -0.4750   -3.2570 hn        1 MOL      0.260372
     79 H35        -3.0590   -3.2690   -3.6850 h1        1 MOL      0.108442
     80 H36        -4.3630   -2.5980   -2.7780 h1        1 MOL      0.108442
     81 N9         -2.2610   -2.5370   -0.6450 n         1 MOL     -0.131299
     82 C25        -1.5810   -2.8480    0.6600 c3        1 MOL     -0.024251
     83 C26        -0.1850   -2.2270    0.8220 c         1 MOL      0.358896
     84 O13        -0.0330   -1.0160    0.5480 o         1 MOL     -0.496418
     85 C27        -2.5120   -2.3320    1.7480 c3        1 MOL     -0.072063
     86 C28        -1.8700   -2.1660    3.1170 ca        1 MOL      0.055478
     87 C29        -1.5790   -3.2860    3.9950 ca        1 MOL     -0.112859
     88 C30        -1.5370   -0.8320    3.5860 ca        1 MOL     -0.112859
     89 C31        -1.0290   -3.0490    5.2320 ca        1 MOL     -0.314924
     90 C32        -0.9570   -0.6380    4.8660 ca        1 MOL     -0.314924
     91 C33        -0.7990   -1.7240    5.7220 ca        1 MOL      0.332906
     92 O14        -0.1310   -1.5470    6.8940 oh        1 MOL     -0.490348
     93 H37        -2.3410   -1.5530   -0.8460 hn        1 MOL      0.139600
     94 H38        -1.4850   -3.9120    0.8720 h1        1 MOL      0.086626
     95 H39        -3.3530   -3.0350    1.7150 hc        1 MOL      0.063263
     96 H40        -2.9450   -1.3350    1.5900 hc        1 MOL      0.063263
     97 H41        -1.7750   -4.2780    3.6200 ha        1 MOL      0.121246
     98 H42        -1.7870    0.0450    3.0010 ha        1 MOL      0.121246
     99 H43        -0.8570   -3.8340    5.9540 ha        1 MOL      0.171362
    100 H44        -0.8110    0.3950    5.1630 ha        1 MOL      0.171362
    101 H45         0.1630   -0.6320    6.9340 ho        1 MOL      0.371759
    102 N10         0.7180   -3.0130    1.3220 n         1 MOL     -0.334290
    103 C34         2.1540   -2.6370    1.4870 c3        1 MOL     -0.140581
    104 C35         2.8220   -2.4970    0.1150 c         1 MOL      0.428608
    105 O15         3.5890   -1.6040   -0.1190 o         1 MOL     -0.479749
    106 C36         2.9460   -3.4460    2.5620 c3        1 MOL     -0.028380
    107 C37         2.4130   -2.9950    3.9180 c3        1 MOL      0.219449
    108 C38         4.4390   -3.1110    2.6410 c3        1 MOL     -0.363475
    109 C39         3.0330   -3.5850    5.1440 c3        1 MOL     -0.326870
    110 H46         0.4240   -3.9310    1.6170 hn        1 MOL      0.287648
    111 H47         2.1750   -1.6200    1.8960 h1        1 MOL      0.150368
    112 H48         2.6570   -4.4830    2.3830 hc        1 MOL      0.034569
    113 H49         1.4050   -3.3980    4.0030 hc        1 MOL      0.006123
    114 H50         2.3570   -1.9090    3.9880 hc        1 MOL      0.006123
    115 H51         4.5110   -2.0330    2.7020 hc        1 MOL      0.114108
    116 H52         4.9910   -3.6070    3.4450 hc        1 MOL      0.114108
    117 H53         4.9050   -3.3540    1.6880 hc        1 MOL      0.114108
    118 H54         4.0220   -3.1590    5.3430 hc        1 MOL      0.076864
    119 H55         2.3560   -3.4520    5.9760 hc        1 MOL      0.076864
    120 H56         3.1820   -4.6630    5.1800 hc        1 MOL      0.076864
    121 N11         2.5090   -3.4190   -0.7540 n         1 MOL     -0.150312
    122 C40         2.7330   -3.3530   -2.1860 c3        1 MOL     -0.123196
    123 C41         4.2170   -3.3250   -2.5950 c         1 MOL      0.401694
    124 O16         4.5200   -2.6430   -3.6240 o         1 MOL     -0.533067
    125 C42         1.9160   -4.4210   -2.9190 c3        1 MOL      0.079567
    126 O17         0.6370   -4.4900   -2.3030 oh        1 MOL     -0.549356
    127 H57         1.8390   -4.1220   -0.4800 hn        1 MOL      0.205738
    128 H58         2.3720   -2.3870   -2.5370 h1        1 MOL      0.153364
    129 H59         2.3980   -5.3890   -2.7720 h1        1 MOL      0.062065
    130 H60         1.9020   -4.0700   -3.9450 h1        1 MOL      0.062065
    131 H61         0.1680   -3.6730   -2.5210 ho        1 MOL      0.360449
    132 N12         5.0720   -3.9410   -1.8350 n         1 MOL     -0.282536
    133 C43         6.5440   -3.8920   -1.8490 c3        1 MOL      0.191122
    134 C44         7.1790   -2.4740   -1.5940 c         1 MOL      0.398631
    135 O18         8.4250   -2.2740   -1.7020 o         1 MOL     -0.557725
    136 C45         6.9870   -4.4750   -3.2130 c3        1 MOL     -0.428282
    137 H62         4.7260   -4.5020   -1.0740 hn        1 MOL      0.210167
    138 H63         6.9260   -4.5220   -1.0420 h1        1 MOL      0.054490
    139 H64         6.4830   -5.4310   -3.3310 hc        1 MOL      0.127591
    140 H65         6.7380   -3.8630   -4.0780 hc        1 MOL      0.127591
    141 H66         8.0690   -4.5520   -3.1010 hc        1 MOL      0.127591
    142 N13         6.4650   -1.5250   -1.1420 n         1 MOL     -0.158296
    143 C46         6.7460   -0.1080   -1.1360 c3        1 MOL      0.026009
    144 C47         7.0610    0.3640    0.3160 c         1 MOL      0.516648
    145 O19         6.4430   -0.1540    1.2500 o         1 MOL     -0.463846
    146 C48         5.5280    0.6750   -1.7300 c3        1 MOL     -0.091461
    147 H67         5.5510   -1.7710   -0.7770 hn        1 MOL      0.104516
    148 H68         7.6030    0.0710   -1.7830 h1        1 MOL      0.035633
    149 H69         5.0890    0.2340   -2.6230 hc        1 MOL      0.020736
    150 H70         4.7080    0.5610   -1.0310 hc        1 MOL      0.020736
    151 H71         5.7060    1.7450   -1.8480 hc        1 MOL      0.020736
    152 N14         8.0430    1.2710    0.4420 n         1 MOL     -0.536104
    153 C49         8.4440    1.9580    1.7180 c3        1 MOL      0.020352
    154 C50         8.7180    1.0430    2.8720 c         1 MOL      0.418474
    155 O20         8.3660    1.3210    4.0120 o         1 MOL     -0.496316
    156 C51         7.6090    3.2310    2.1300 c3        1 MOL      0.350419
    157 C52         7.5480    4.4620    1.2170 c3        1 MOL     -0.173489
    158 C53         6.4650    5.4130    1.7240 c         1 MOL      0.763907
    159 O21         5.6830    5.9640    0.8950 o         1 MOL     -0.729015
    160 O22         6.5470    5.7740    2.8840 o         1 MOL     -0.729015
    161 H72         8.3110    1.6780   -0.4460 hn        1 MOL      0.340505
    162 H73         9.4410    2.3470    1.5270 h1        1 MOL      0.026213
    163 H74         7.9250    3.5810    3.1150 hc        1 MOL     -0.052081
    164 H75         6.5730    2.9050    2.2790 hc        1 MOL     -0.052081
    165 H76         7.2450    4.0590    0.2490 hc        1 MOL     -0.037089
    166 H77         8.4980    4.9760    1.0690 hc        1 MOL     -0.037089
    167 N15         9.4110   -0.0720    2.6970 n         1 MOL     -0.279116
    168 C54         9.4770   -1.2390    3.6180 c3        1 MOL     -0.210339
    169 H78         8.4910   -1.4220    4.0430 h1        1 MOL      0.106658
    170 H79         9.8030   -2.1210    3.0660 h1        1 MOL      0.106658
    171 H80        10.1850   -1.0300    4.4200 h1        1 MOL      0.106658
    172 H81         9.6680   -0.3150    1.7490 hn        1 MOL      0.234249
    173 Ca1         1.0790    3.8910   -0.8620 Ca        1 MOL      1.723988
    174 O23         1.7850    1.4080    0.0460 oh        1 MOL     -0.784978
    175 H82         2.3540    1.1770    0.7790 ho        1 MOL      0.392009
    176 H83         0.9920    0.8880    0.1910 ho        1 MOL      0.392009
    177 O24        -1.1770    5.4040   -1.8980 oh        1 MOL     -0.784978
    178 H84        -1.0380    6.3380   -1.7770 ho        1 MOL      0.392009
    179 H85        -0.8530    5.2180   -2.7760 ho        1 MOL      0.392009
    180 O25         3.7140    4.0650   -0.4300 oh        1 MOL     -0.784978
    181 H86         4.0060    4.7920    0.1310 ho        1 MOL      0.392009
    182 H87         4.3770    4.0310   -1.1220 ho        1 MOL      0.392009
    183 O26         1.4040    4.1820    1.9240 oh        1 MOL     -0.784978
    184 H88         1.1850    5.0570    2.2450 ho        1 MOL      0.392009
    185 H89         2.0170    3.8280    2.5770 ho        1 MOL      0.392009
    186 O27         1.4110    6.4290   -0.3400 oh        1 MOL     -0.784978
    187 H90         1.1870    7.0800   -1.0100 ho        1 MOL      0.392009
    188 H91         2.1850    6.7870    0.0940 ho        1 MOL      0.392009
    189 O28         2.3980    5.2060   -2.8670 oh        1 MOL     -0.784978
    190 H92         3.3540    5.1860   -2.9700 ho        1 MOL      0.392009
    191 H93         2.0810    5.6350   -3.6560 ho        1 MOL      0.392009
@<TRIPOS>BOND
     1    1    2 1   
     2    1    4 1   
     3    1    5 1   
     4    1    6 1   
     5    2    3 2   
     6    2    7 1   
     7    7    8 1   
     8    7   15 1   
     9    8    9 1   
    10    8   11 1   
    11    8   16 1   
    12    9   10 2   
    13    9   19 1   
    14   11   12 1   
    15   11   17 1   
    16   11   18 1   
    17   12   13 1   
    18   12   14 1   
    19   19   20 1   
    20   19   28 1   
    21   20   21 1   
    22   20   23 1   
    23   20   29 1   
    24   21   22 2   
    25   21   41 1   
    26   23   24 1   
    27   23   30 1   
    28   23   31 1   
    29   24   25 1   
    30   24   32 1   
    31   24   33 1   
    32   25   26 1   
    33   25   34 1   
    34   25   35 1   
    35   26   27 1   
    36   26   36 1   
    37   26   37 1   
    38   27   38 1   
    39   27   39 1   
    40   27   40 1   
    41   41   42 1   
    42   41   49 1   
    43   42   43 1   
    44   42   45 1   
    45   42   50 1   
    46   43   44 2   
    47   43   53 1   
    48   45   46 1   
    49   45   51 1   
    50   45   52 1   
    51   46   47 1   
    52   46   48 1   
    53   53   54 1   
    54   53   57 1   
    55   54   55 1   
    56   54   58 1   
    57   54   59 1   
    58   55   56 2   
    59   55   60 1   
    60   60   61 1   
    61   60   68 1   
    62   61   62 1   
    63   61   64 1   
    64   61   69 1   
    65   62   63 2   
    66   62   74 1   
    67   64   65 1   
    68   64   70 1   
    69   64   71 1   
    70   65   66 1   
    71   65   67 2   
    72   66   72 1   
    73   66   73 1   
    74   74   75 1   
    75   74   78 1   
    76   75   76 1   
    77   75   79 1   
    78   75   80 1   
    79   76   77 2   
    80   76   81 1   
    81   81   82 1   
    82   81   93 1   
    83   82   83 1   
    84   82   85 1   
    85   82   94 1   
    86   83   84 2   
    87   83  102 1   
    88   85   86 1   
    89   85   95 1   
    90   85   96 1   
    91   86   87 ar  
    92   86   88 ar  
    93   87   89 ar  
    94   87   97 1   
    95   88   90 ar  
    96   88   98 1   
    97   89   91 ar  
    98   89   99 1   
    99   90   91 ar  
   100   90  100 1   
   101   91   92 1   
   102   92  101 1   
   103  102  103 1   
   104  102  110 1   
   105  103  104 1   
   106  103  106 1   
   107  103  111 1   
   108  104  105 2   
   109  104  121 1   
   110  106  107 1   
   111  106  108 1   
   112  106  112 1   
   113  107  109 1   
   114  107  113 1   
   115  107  114 1   
   116  108  115 1   
   117  108  116 1   
   118  108  117 1   
   119  109  118 1   
   120  109  119 1   
   121  109  120 1   
   122  121  122 1   
   123  121  127 1   
   124  122  123 1   
   125  122  125 1   
   126  122  128 1   
   127  123  124 2   
   128  123  132 1   
   129  125  126 1   
   130  125  129 1   
   131  125  130 1   
   132  126  131 1   
   133  132  133 1   
   134  132  137 1   
   135  133  134 1   
   136  133  136 1   
   137  133  138 1   
   138  134  135 2   
   139  134  142 1   
   140  136  139 1   
   141  136  140 1   
   142  136  141 1   
   143  142  143 1   
   144  142  147 1   
   145  143  144 1   
   146  143  146 1   
   147  143  148 1   
   148  144  145 2   
   149  144  152 1   
   150  146  149 1   
   151  146  150 1   
   152  146  151 1   
   153  152  153 1   
   154  152  161 1   
   155  153  154 1   
   156  153  156 1   
   157  153  162 1   
   158  154  155 2   
   159  154  167 1   
   160  156  157 1   
   161  156  163 1   
   162  156  164 1   
   163  157  158 1   
   164  157  165 1   
   165  157  166 1   
   166  158  159 1   
   167  158  160 1   
   168  167  168 1   
   169  167  172 1   
   170  168  169 1   
   171  168  170 1   
   172  168  171 1   
   173  174  175 1   
   174  174  176 1   
   175  177  178 1   
   176  177  179 1   
   177  180  181 1   
   178  180  182 1   
   179  183  184 1   
   180  183  185 1   
   181  186  187 1   
   182  186  188 1   
   183  189  190 1   
   184  189  191 1   
@<TRIPOS>SUBSTRUCTURE
     1 MOL         1 TEMP              0 ****  ****    0 ROOT
