@<TRIPOS>MOLECULE
MOL
  192   187     1     0     0
SMALL
resp


@<TRIPOS>ATOM
      1 C1          1.8850    7.4770    3.6650 c3        1 MOL     -0.330791
      2 C2          0.9300    6.4490    3.0250 c         1 MOL      0.515376
      3 O1          0.3980    5.4540    3.5530 o         1 MOL     -0.526933
      4 H1          1.3790    8.4390    3.7510 hc        1 MOL      0.090877
      5 H2          2.1800    7.1320    4.6560 hc        1 MOL      0.090877
      6 H3          2.7720    7.5880    3.0400 hc        1 MOL      0.090877
      7 N1          0.7660    6.6330    1.7230 n         1 MOL     -0.255577
      8 C3         -0.0750    5.7660    0.8160 c3        1 MOL     -0.061468
      9 C4          0.7340    4.7120    0.0910 c         1 MOL      0.430286
     10 O2          0.2310    3.9180   -0.7920 o         1 MOL     -0.532957
     11 C5         -0.8610    6.5190   -0.2160 c3        1 MOL     -0.097567
     12 C6          0.1470    7.2250   -1.1750 c         1 MOL      0.633514
     13 O3         -0.0660    7.0030   -2.3920 o         1 MOL     -0.657289
     14 O4          1.0610    7.9970   -0.7960 o         1 MOL     -0.657289
     15 H4          1.1390    7.3940    1.1670 hn        1 MOL      0.166104
     16 H5         -0.7890    5.2220    1.4360 h1        1 MOL      0.121201
     17 H6         -1.4700    7.2490    0.3310 hc        1 MOL      0.047383
     18 H7         -1.4910    5.8540   -0.8060 hc        1 MOL      0.047383
     19 N2          2.0430    4.6620    0.3860 n         1 MOL     -0.287923
     20 C7          2.9820    3.6600   -0.1280 c3        1 MOL      0.225932
     21 C8          3.4410    2.6900    0.9140 c         1 MOL      0.472531
     22 O5          3.6440    3.1160    2.0680 o         1 MOL     -0.585812
     23 C9          4.2880    4.2970   -0.6950 c3        1 MOL      0.005845
     24 C10         3.9850    5.6000   -1.5040 c3        1 MOL     -0.174608
     25 C11         3.1640    5.5440   -2.7990 c3        1 MOL     -0.086853
     26 C12         3.2920    6.8500   -3.5880 c3        1 MOL     -0.079648
     27 N3          2.8020    8.0210   -2.8630 n4        1 MOL     -0.170399
     28 H8          2.3320    5.4490    0.9520 hn        1 MOL      0.222754
     29 H9          2.5260    3.1140   -0.9440 h1        1 MOL      0.025842
     30 H10         4.6180    3.5190   -1.3810 hc        1 MOL      0.002292
     31 H11         4.9770    4.5580    0.1020 hc        1 MOL      0.002292
     32 H12         4.9610    6.0420   -1.7200 hc        1 MOL      0.045302
     33 H13         3.5400    6.2610   -0.7620 hc        1 MOL      0.045302
     34 H14         2.1060    5.4470   -2.5720 hc        1 MOL      0.104716
     35 H15         3.5210    4.7320   -3.4210 hc        1 MOL      0.104716
     36 H16         2.7740    6.6600   -4.5270 hx        1 MOL      0.082324
     37 H17         4.3740    6.9340   -3.7390 hx        1 MOL      0.082324
     38 H18         1.8860    7.8680   -2.4760 hn        1 MOL      0.257255
     39 H19         3.3540    8.2090   -2.0420 hn        1 MOL      0.257255
     40 H20         2.7990    8.8720   -3.4020 hn        1 MOL      0.257255
     41 N4          3.5170    1.4310    0.7550 n         1 MOL     -0.382309
     42 C13         3.1000    0.5690   -0.3940 c3        1 MOL     -0.211923
     43 C14         3.6550    1.1320   -1.7420 c         1 MOL      0.351694
     44 O6          2.9040    1.5360   -2.6090 o         1 MOL     -0.506611
     45 C15         1.6020    0.3010   -0.3810 c3        1 MOL      0.085134
     46 C16         1.0480   -0.2960    0.8690 c         1 MOL      1.015619
     47 O7          1.8310   -0.6310    1.8450 o         1 MOL     -0.894233
     48 O8         -0.1610   -0.6230    0.9070 o         1 MOL     -0.894233
     49 H21         3.6650    0.8970    1.5940 hn        1 MOL      0.293240
     50 H22         3.5910   -0.4020   -0.3590 h1        1 MOL      0.111335
     51 H23         1.2920   -0.3170   -1.2300 hc        1 MOL      0.023004
     52 H24         1.0270    1.2270   -0.4740 hc        1 MOL      0.023004
     53 N5          4.9930    1.0910   -1.8910 n         1 MOL     -0.103275
     54 C17         5.9450    0.5780   -0.9070 c3        1 MOL     -0.219770
     55 C18         7.3520    0.4120   -1.6050 c         1 MOL      0.592490
     56 O9          7.5030    0.7480   -2.7890 o         1 MOL     -0.557000
     57 H25         5.3360    1.1910   -2.8440 hn        1 MOL      0.212757
     58 H26         5.5350   -0.3230   -0.4610 h1        1 MOL      0.090183
     59 H27         6.1210    1.3140   -0.1140 h1        1 MOL      0.090183
     60 N6          8.4260    0.0970   -0.9210 n         1 MOL     -0.441051
     61 C19         8.5560   -0.3000    0.5130 c3        1 MOL      0.069174
     62 C20         7.8830   -1.6600    0.8430 c         1 MOL      0.536842
     63 O10         8.2760   -2.7040    0.2520 o         1 MOL     -0.465951
     64 C21        10.0260   -0.2310    1.0950 c3        1 MOL     -0.196112
     65 C22        11.0960   -1.0060    0.2580 c         1 MOL      0.684273
     66 O11        11.6170   -2.0190    0.7370 o         1 MOL     -0.622151
     67 O12        11.3530   -0.5570   -0.8840 o         1 MOL     -0.622151
     68 H28         9.2180   -0.1700   -1.4820 hn        1 MOL      0.295547
     69 H29         7.9530    0.3890    1.0990 h1        1 MOL      0.018225
     70 H30        10.0000   -0.5480    2.1300 hc        1 MOL      0.044713
     71 H31        10.2920    0.8230    1.2440 hc        1 MOL      0.044713
     72 N7          6.8630   -1.6810    1.7370 n         1 MOL     -0.542767
     73 C23         5.9490   -2.8070    2.0650 c3        1 MOL      0.057338
     74 C24         4.8450   -3.1320    1.0270 c         1 MOL      0.696922
     75 O13         4.9180   -2.6660   -0.1240 o         1 MOL     -0.515934
     76 H32         6.4630   -0.8470    2.1310 hn        1 MOL      0.300100
     77 H33         5.5340   -2.6040    3.0540 h1        1 MOL      0.056105
     78 H34         6.4550   -3.7580    2.1910 h1        1 MOL      0.056105
     79 N8          3.8940   -3.9490    1.4860 n         1 MOL     -0.780169
     80 C25         3.1760   -4.8120    0.5580 c3        1 MOL      0.167006
     81 C26         1.9170   -4.0460   -0.0130 c         1 MOL      0.574424
     82 O14         1.3150   -3.3500    0.7850 o         1 MOL     -0.523780
     83 C27         2.7820   -6.0970    1.2280 c3        1 MOL      0.334468
     84 C28         2.0280   -7.1160    0.2960 c3        1 MOL     -0.267528
     85 O15         1.9030   -5.7100    2.3540 oh        1 MOL     -0.623308
     86 H35         3.6660   -3.8680    2.4690 hn        1 MOL      0.282791
     87 H36         3.8470   -5.1030   -0.2380 h1        1 MOL      0.046476
     88 H37         3.6180   -6.6560    1.6680 h1        1 MOL      0.010435
     89 H38         2.5360   -5.2600    2.9360 ho        1 MOL      0.357997
     90 H39         2.7290   -7.5130   -0.4400 hc        1 MOL      0.082332
     91 H40         1.7910   -8.0180    0.8630 hc        1 MOL      0.082332
     92 H41         1.0810   -6.7560   -0.0910 hc        1 MOL      0.082332
     93 N9          1.6060   -4.2170   -1.2350 n         1 MOL     -0.383512
     94 C29         0.6960   -3.2850   -1.9950 c3        1 MOL     -0.269513
     95 C30        -0.5650   -4.0580   -2.4340 c         1 MOL      0.594033
     96 O16        -0.5630   -5.0070   -3.2660 o         1 MOL     -0.531189
     97 C31         1.4090   -2.6510   -3.2780 c3        1 MOL      0.161181
     98 C32         2.8500   -2.2590   -2.9810 c3        1 MOL      0.178695
     99 C33         0.5680   -1.5670   -3.9400 c3        1 MOL     -0.228081
    100 C34         3.5730   -1.6520   -4.1310 c3        1 MOL     -0.459043
    101 H42         1.9550   -4.9940   -1.7790 hn        1 MOL      0.247518
    102 H43         0.5570   -2.4360   -1.3310 h1        1 MOL      0.040756
    103 H44         1.4530   -3.4230   -4.0440 hc        1 MOL     -0.004556
    104 H45         3.4370   -3.1280   -2.6780 hc        1 MOL      0.012116
    105 H46         2.8850   -1.6320   -2.0890 hc        1 MOL      0.012116
    106 H47        -0.4870   -1.8180   -4.0060 hc        1 MOL      0.057468
    107 H48         0.6570   -0.6450   -3.3520 hc        1 MOL      0.057468
    108 H49         0.9080   -1.3460   -4.9500 hc        1 MOL      0.057468
    109 H50         4.6300   -1.5790   -3.8600 hc        1 MOL      0.118702
    110 H51         3.3530   -2.2100   -5.0400 hc        1 MOL      0.118702
    111 H52         3.1770   -0.6420   -4.2290 hc        1 MOL      0.118702
    112 N10        -1.7670   -3.6260   -1.9670 n         1 MOL     -0.253691
    113 C35        -3.0920   -4.2360   -2.2290 c3        1 MOL     -0.165362
    114 C36        -4.0990   -3.4580   -3.0130 c         1 MOL      0.504899
    115 O17        -5.0300   -4.0190   -3.6010 o         1 MOL     -0.534588
    116 C37        -3.7690   -4.6100   -0.8840 c3        1 MOL      0.260951
    117 C38        -4.2060   -3.4750    0.0110 c3        1 MOL     -0.337890
    118 O18        -2.9330   -5.5000   -0.2670 oh        1 MOL     -0.640627
    119 H53        -1.7070   -2.9580   -1.2100 hn        1 MOL      0.366364
    120 H54        -2.8990   -5.1740   -2.7450 h1        1 MOL      0.128706
    121 H55        -4.6920   -5.1590   -1.0930 h1        1 MOL      0.072285
    122 H56        -3.3940   -6.3290   -0.4350 ho        1 MOL      0.419591
    123 H57        -5.0560   -2.9110   -0.3810 hc        1 MOL      0.073298
    124 H58        -4.6420   -4.0190    0.8620 hc        1 MOL      0.073298
    125 H59        -3.3980   -2.8350    0.3580 hc        1 MOL      0.073298
    126 N11        -4.0140   -2.1360   -2.9920 n         1 MOL     -0.304897
    127 C39        -4.9840   -1.1280   -3.3890 c3        1 MOL      0.010533
    128 C40        -6.2640   -1.0450   -2.5270 c         1 MOL      0.358681
    129 O19        -6.9580   -2.0610   -2.4410 o         1 MOL     -0.437446
    130 C41        -5.3110   -1.1410   -4.8750 c3        1 MOL      0.439174
    131 C42        -4.0600   -1.1900   -5.7790 c3        1 MOL     -0.448217
    132 O20        -6.0480    0.0270   -5.1140 oh        1 MOL     -0.657935
    133 H60        -3.2350   -1.8000   -2.4450 hn        1 MOL      0.167119
    134 H61        -4.4640   -0.1640   -3.3840 h1        1 MOL      0.092132
    135 H62        -5.9190   -2.0220   -5.0580 h1        1 MOL      0.002603
    136 H63        -6.6080   -0.1570   -5.8690 ho        1 MOL      0.402621
    137 H64        -3.5630   -2.1620   -5.7250 hc        1 MOL      0.115147
    138 H65        -4.4820   -1.0850   -6.7830 hc        1 MOL      0.115147
    139 H66        -3.3910   -0.3530   -5.6090 hc        1 MOL      0.115147
    140 N12        -6.6170    0.1050   -1.8930 n         1 MOL     -0.383624
    141 C43        -7.7410    0.3530   -0.9410 c3        1 MOL      0.020518
    142 C44        -7.4070   -0.2950    0.4000 c         1 MOL      0.520609
    143 O21        -8.2560   -0.9640    1.0200 o         1 MOL     -0.553127
    144 C45        -8.0510    1.8590   -0.9550 c3        1 MOL      0.185160
    145 C46        -9.2230    2.2500   -0.0130 c3        1 MOL     -0.179725
    146 C47       -10.6280    1.7010   -0.4780 c3        1 MOL     -0.099854
    147 C48       -11.6580    1.5880    0.6280 c3        1 MOL      0.076075
    148 N13       -12.9220    1.0360    0.0730 n4        1 MOL     -0.235498
    149 H67        -6.0140    0.8920   -2.0620 hn        1 MOL      0.265054
    150 H68        -8.5990   -0.2260   -1.3120 h1        1 MOL      0.077726
    151 H69        -8.3230    2.1990   -1.9600 hc        1 MOL     -0.005790
    152 H70        -7.1870    2.4440   -0.6610 hc        1 MOL     -0.005790
    153 H71        -9.3200    3.3290    0.1360 hc        1 MOL      0.091986
    154 H72        -8.9940    1.7540    0.9370 hc        1 MOL      0.091986
    155 H73       -10.5990    0.7180   -0.9390 hc        1 MOL      0.042003
    156 H74       -11.0500    2.3250   -1.2600 hc        1 MOL      0.042003
    157 H75       -11.7330    2.5510    1.1260 hx        1 MOL      0.062104
    158 H76       -11.3150    0.9080    1.4050 hx        1 MOL      0.062104
    159 H77       -12.8040    0.1180   -0.3320 hn        1 MOL      0.243563
    160 H78       -13.6150    0.9820    0.8100 hn        1 MOL      0.243563
    161 H79       -13.4080    1.6590   -0.5500 hn        1 MOL      0.243563
    162 N14        -6.2060   -0.0600    0.8820 n         1 MOL     -0.373851
    163 C49        -5.8870    0.0440    2.2900 c3        1 MOL      0.143503
    164 C50        -6.2530    1.4110    2.9360 c         1 MOL      0.343046
    165 O22        -6.4090    2.4210    2.2030 o         1 MOL     -0.494014
    166 C51        -4.4180   -0.3410    2.4210 c3        1 MOL     -0.163992
    167 C52        -3.6090    0.1050    3.6820 c3        1 MOL     -0.551969
    168 C53        -2.2500   -0.5670    3.7440 c         1 MOL      0.814501
    169 O23        -1.2160    0.1670    3.7520 o         1 MOL     -0.771919
    170 O24        -2.1190   -1.8330    3.7140 o         1 MOL     -0.771919
    171 H80        -5.6090    0.3950    0.2040 hn        1 MOL      0.191280
    172 H81        -6.5090   -0.6870    2.7960 h1        1 MOL      0.036855
    173 H82        -3.8730    0.0360    1.5570 hc        1 MOL      0.169287
    174 H83        -4.3450   -1.4320    2.3640 hc        1 MOL      0.169287
    175 H84        -4.1580   -0.0450    4.6090 hc        1 MOL      0.177486
    176 H85        -3.5390    1.1920    3.6250 hc        1 MOL      0.177486
    177 N15        -6.3800    1.4740    4.2750 n         1 MOL     -0.238000
    178 C54        -6.8070    2.5760    5.1870 c3        1 MOL     -0.264667
    179 H86        -6.7930    3.5220    4.6460 h1        1 MOL      0.125405
    180 H87        -7.8170    2.3810    5.5460 h1        1 MOL      0.125405
    181 H88        -6.1250    2.6330    6.0350 h1        1 MOL      0.125405
    182 H89        -6.4390    0.5930    4.7490 hn        1 MOL      0.241598
    183 Ca1         0.3940   -2.0880    3.3160 Ca        1 MOL      1.798410
    184 O25         0.5950   -1.7830    5.9710 oh        1 MOL     -0.873660
    185 H90         0.5420   -2.6590    6.3370 ho        1 MOL      0.429440
    186 H91         0.2900   -1.2040    6.6710 ho        1 MOL      0.429440
    187 O26        -1.4490   -4.2070    2.0850 oh        1 MOL     -0.873660
    188 H92        -1.5620   -5.1150    2.3650 ho        1 MOL      0.429440
    189 H93        -2.2370   -4.0180    1.5830 ho        1 MOL      0.429440
    190 O27        -0.2450   -4.3160    5.0740 oh        1 MOL     -0.873660
    191 H94        -0.5840   -4.5120    5.9470 ho        1 MOL      0.429440
    192 H95        -0.3500   -5.1390    4.5910 ho        1 MOL      0.429440
@<TRIPOS>BOND
     1    1    2 1   
     2    1    4 1   
     3    1    5 1   
     4    1    6 1   
     5    2    3 2   
     6    2    7 1   
     7    7    8 1   
     8    7   15 1   
     9    8    9 1   
    10    8   11 1   
    11    8   16 1   
    12    9   10 2   
    13    9   19 1   
    14   11   12 1   
    15   11   17 1   
    16   11   18 1   
    17   12   13 1   
    18   12   14 1   
    19   19   20 1   
    20   19   28 1   
    21   20   21 1   
    22   20   23 1   
    23   20   29 1   
    24   21   22 2   
    25   21   41 1   
    26   23   24 1   
    27   23   30 1   
    28   23   31 1   
    29   24   25 1   
    30   24   32 1   
    31   24   33 1   
    32   25   26 1   
    33   25   34 1   
    34   25   35 1   
    35   26   27 1   
    36   26   36 1   
    37   26   37 1   
    38   27   38 1   
    39   27   39 1   
    40   27   40 1   
    41   41   42 1   
    42   41   49 1   
    43   42   43 1   
    44   42   45 1   
    45   42   50 1   
    46   43   44 2   
    47   43   53 1   
    48   45   46 1   
    49   45   51 1   
    50   45   52 1   
    51   46   47 1   
    52   46   48 1   
    53   53   54 1   
    54   53   57 1   
    55   54   55 1   
    56   54   58 1   
    57   54   59 1   
    58   55   56 2   
    59   55   60 1   
    60   60   61 1   
    61   60   68 1   
    62   61   62 1   
    63   61   64 1   
    64   61   69 1   
    65   62   63 2   
    66   62   72 1   
    67   64   65 1   
    68   64   70 1   
    69   64   71 1   
    70   65   66 1   
    71   65   67 1   
    72   72   73 1   
    73   72   76 1   
    74   73   74 1   
    75   73   77 1   
    76   73   78 1   
    77   74   75 2   
    78   74   79 1   
    79   79   80 1   
    80   79   86 1   
    81   80   81 1   
    82   80   83 1   
    83   80   87 1   
    84   81   82 2   
    85   81   93 1   
    86   83   84 1   
    87   83   85 1   
    88   83   88 1   
    89   84   90 1   
    90   84   91 1   
    91   84   92 1   
    92   85   89 1   
    93   93   94 1   
    94   93  101 1   
    95   94   95 1   
    96   94   97 1   
    97   94  102 1   
    98   95   96 2   
    99   95  112 1   
   100   97   98 1   
   101   97   99 1   
   102   97  103 1   
   103   98  100 1   
   104   98  104 1   
   105   98  105 1   
   106   99  106 1   
   107   99  107 1   
   108   99  108 1   
   109  100  109 1   
   110  100  110 1   
   111  100  111 1   
   112  112  113 1   
   113  112  119 1   
   114  113  114 1   
   115  113  116 1   
   116  113  120 1   
   117  114  115 2   
   118  114  126 1   
   119  116  117 1   
   120  116  118 1   
   121  116  121 1   
   122  117  123 1   
   123  117  124 1   
   124  117  125 1   
   125  118  122 1   
   126  126  127 1   
   127  126  133 1   
   128  127  128 1   
   129  127  130 1   
   130  127  134 1   
   131  128  129 2   
   132  128  140 1   
   133  130  131 1   
   134  130  132 1   
   135  130  135 1   
   136  131  137 1   
   137  131  138 1   
   138  131  139 1   
   139  132  136 1   
   140  140  141 1   
   141  140  149 1   
   142  141  142 1   
   143  141  144 1   
   144  141  150 1   
   145  142  143 2   
   146  142  162 1   
   147  144  145 1   
   148  144  151 1   
   149  144  152 1   
   150  145  146 1   
   151  145  153 1   
   152  145  154 1   
   153  146  147 1   
   154  146  155 1   
   155  146  156 1   
   156  147  148 1   
   157  147  157 1   
   158  147  158 1   
   159  148  159 1   
   160  148  160 1   
   161  148  161 1   
   162  162  163 1   
   163  162  171 1   
   164  163  164 1   
   165  163  166 1   
   166  163  172 1   
   167  164  165 2   
   168  164  177 1   
   169  166  167 1   
   170  166  173 1   
   171  166  174 1   
   172  167  168 1   
   173  167  175 1   
   174  167  176 1   
   175  168  169 1   
   176  168  170 1   
   177  177  178 1   
   178  177  182 1   
   179  178  179 1   
   180  178  180 1   
   181  178  181 1   
   182  184  185 1   
   183  184  186 1   
   184  187  188 1   
   185  187  189 1   
   186  190  191 1   
   187  190  192 1   
@<TRIPOS>SUBSTRUCTURE
     1 MOL         1 TEMP              0 ****  ****    0 ROOT
