@<TRIPOS>MOLECULE
MOL
  181   177     1     0     0
SMALL
resp


@<TRIPOS>ATOM
      1 C1          2.3940   -0.7490    4.2460 c3        1 MOL     -0.099154
      2 C2          2.8030    0.6880    3.7410 c         1 MOL      0.412330
      3 O1          2.1810    1.1100    2.7190 o         1 MOL     -0.436778
      4 H1          3.0630   -1.0540    5.0500 hc        1 MOL      0.025256
      5 H2          1.3690   -0.7260    4.6150 hc        1 MOL      0.025256
      6 H3          2.4690   -1.4590    3.4220 hc        1 MOL      0.025256
      7 N1          3.9850    1.2570    4.1230 n         1 MOL     -0.403160
      8 C3          4.6170    2.2860    3.3830 c3        1 MOL      0.102486
      9 C4          5.3970    1.7010    2.1140 c         1 MOL      0.530421
     10 O2          5.5670    2.3910    1.1210 o         1 MOL     -0.484654
     11 C5          5.5110    3.1570    4.2690 c3        1 MOL     -0.118198
     12 C6          6.2140    4.3440    3.6250 c         1 MOL      0.760178
     13 O3          7.3890    4.6090    3.8710 o         1 MOL     -0.734858
     14 O4          5.5040    5.0850    2.8960 o         1 MOL     -0.734858
     15 H4          4.5780    0.8620    4.8420 hn        1 MOL      0.263719
     16 H5          3.7900    2.8690    2.9940 h1        1 MOL      0.054463
     17 H6          6.1390    2.3850    4.7010 hc        1 MOL     -0.039828
     18 H7          4.9530    3.5720    5.1050 hc        1 MOL     -0.039828
     19 N2          5.8990    0.4750    2.2100 n         1 MOL     -0.292943
     20 C7          6.4300   -0.4320    1.1750 c3        1 MOL     -0.030017
     21 C8          5.4540   -0.5360   -0.0180 c         1 MOL      0.183267
     22 O5          4.3230   -1.0000    0.1950 o         1 MOL     -0.358942
     23 C9          7.9480   -0.1120    0.9110 c3        1 MOL     -0.475350
     24 H8          5.6880   -0.0010    3.0850 hn        1 MOL      0.223397
     25 H9          6.2910   -1.3960    1.6710 h1        1 MOL      0.138491
     26 H10         8.4970   -0.2490    1.8470 hc        1 MOL      0.136169
     27 H11         8.2740   -0.8310    0.1660 hc        1 MOL      0.136169
     28 H12         8.1220    0.9160    0.6050 hc        1 MOL      0.136169
     29 N3          5.8770   -0.1210   -1.2240 n         1 MOL     -0.395276
     30 C10         4.9830   -0.0330   -2.3750 c3        1 MOL      0.152821
     31 C11         4.7830    1.4100   -2.8360 c         1 MOL      0.386354
     32 O6          4.7560    1.7880   -4.0640 o         1 MOL     -0.523827
     33 C12         5.3300   -1.1020   -3.4670 c3        1 MOL     -0.266530
     34 C13         5.8120   -2.4510   -2.9830 c         1 MOL      0.805057
     35 O7          5.5060   -2.8500   -1.8490 o         1 MOL     -0.721434
     36 O8          6.5200   -3.1480   -3.8040 o         1 MOL     -0.721434
     37 H13         6.8510    0.0960   -1.4120 hn        1 MOL      0.320541
     38 H14         4.0120   -0.3520   -1.9770 h1        1 MOL      0.062286
     39 H15         6.1140   -0.7400   -4.1330 hc        1 MOL      0.057905
     40 H16         4.4500   -1.3150   -4.0860 hc        1 MOL      0.057905
     41 N4          4.6490    2.3110   -1.8740 n         1 MOL     -0.247422
     42 C14         4.5300    3.8050   -2.0490 c3        1 MOL     -0.097973
     43 C15         3.2340    4.2110   -2.6670 c         1 MOL      0.698052
     44 O9          3.2030    5.0660   -3.4730 o         1 MOL     -0.595936
     45 H17         4.9020    2.0620   -0.9260 hn        1 MOL      0.249759
     46 H18         5.3300    4.2580   -2.6300 h1        1 MOL      0.068939
     47 H19         4.6270    4.2690   -1.0740 h1        1 MOL      0.068939
     48 N5          2.1770    3.5900   -2.1870 n         1 MOL     -0.350576
     49 C16         0.8360    3.8770   -2.5900 c3        1 MOL     -0.009211
     50 C17         0.1870    4.8250   -1.6550 c         1 MOL      0.473132
     51 O10         0.3820    4.7620   -0.4340 o         1 MOL     -0.490971
     52 C18         0.0110    2.6290   -2.7780 c3        1 MOL     -0.137621
     53 C19         0.6460    1.6550   -3.7200 c         1 MOL      0.607508
     54 N6          0.7970    0.4600   -3.2690 n         1 MOL     -0.743597
     55 O11         0.8860    1.9430   -4.8860 o         1 MOL     -0.587357
     56 H20         2.3800    2.9560   -1.4280 hn        1 MOL      0.206738
     57 H21         0.8650    4.4320   -3.5330 h1        1 MOL      0.050117
     58 H22        -0.9840    2.9280   -3.0960 hc        1 MOL      0.083936
     59 H23         0.0300    2.1180   -1.8100 hc        1 MOL      0.083936
     60 H24         0.6920    0.2470   -2.2930 hn        1 MOL      0.341621
     61 H25         1.3560   -0.1170   -3.8830 hn        1 MOL      0.341621
     62 N7         -0.5730    5.7360   -2.3120 n         1 MOL     -0.350392
     63 C20        -1.4200    6.7880   -1.6900 c3        1 MOL     -0.134175
     64 C21        -2.8930    6.2570   -1.4960 c         1 MOL      0.640316
     65 O12        -3.3690    5.4940   -2.3280 o         1 MOL     -0.512621
     66 H26        -0.7590    5.5900   -3.2850 hn        1 MOL      0.290790
     67 H27        -1.4710    7.6960   -2.2800 h1        1 MOL      0.086158
     68 H28        -1.1220    6.9510   -0.6500 h1        1 MOL      0.086158
     69 N8         -3.6290    6.6340   -0.4160 n         1 MOL     -0.597537
     70 C22        -4.9400    6.0890   -0.0730 c3        1 MOL     -0.123964
     71 C23        -5.0210    4.6520    0.5150 c         1 MOL      0.460079
     72 O13        -6.0100    4.1390    0.9930 o         1 MOL     -0.558016
     73 C24        -5.8340    7.0230    0.8220 c3        1 MOL      0.439538
     74 C25        -5.5790    6.9080    2.3320 c3        1 MOL     -0.286859
     75 O14        -5.7540    8.3920    0.4130 oh        1 MOL     -0.637776
     76 H29        -3.1600    7.3700    0.1060 hn        1 MOL      0.302196
     77 H30        -5.5190    5.9560   -0.9880 h1        1 MOL      0.131432
     78 H31        -6.8660    6.7250    0.6570 h1        1 MOL      0.025621
     79 H32        -4.8380    8.6800    0.4240 ho        1 MOL      0.382459
     80 H33        -4.5070    7.0320    2.5100 hc        1 MOL      0.067211
     81 H34        -5.9930    7.6960    2.9670 hc        1 MOL      0.067211
     82 H35        -5.8330    5.9500    2.7820 hc        1 MOL      0.067211
     83 N9         -3.8900    4.0100    0.4540 n         1 MOL     -0.096423
     84 C26        -3.6980    2.6310    1.0300 c3        1 MOL      0.032738
     85 C27        -3.0220    1.6430    0.0560 c         1 MOL      0.431410
     86 O15        -2.7150    1.9640   -1.0800 o         1 MOL     -0.535020
     87 C28        -2.8480    2.7700    2.3580 c3        1 MOL      0.032003
     88 C29        -1.4060    3.1510    1.9770 c3        1 MOL     -0.090583
     89 C30        -3.4440    3.8580    3.3220 c3        1 MOL     -0.440835
     90 C31        -0.6040    3.2410    3.2470 c3        1 MOL     -0.091177
     91 H36        -3.1800    4.3490   -0.1880 hn        1 MOL      0.132820
     92 H37        -4.6340    2.1900    1.3430 h1        1 MOL      0.077016
     93 H38        -2.8410    1.8020    2.8600 hc        1 MOL      0.042710
     94 H39        -1.3510    4.1330    1.5280 hc        1 MOL      0.100459
     95 H40        -0.8980    2.4340    1.3340 hc        1 MOL      0.100459
     96 H41        -4.5300    3.8020    3.3040 hc        1 MOL      0.114519
     97 H42        -3.2600    3.5250    4.3510 hc        1 MOL      0.114519
     98 H43        -3.1080    4.8730    3.1410 hc        1 MOL      0.114519
     99 H44         0.4850    3.1880    3.1190 hc        1 MOL      0.022225
    100 H45        -0.9570    4.1580    3.7180 hc        1 MOL      0.022225
    101 H46        -0.9750    2.4610    3.9010 hc        1 MOL      0.022225
    102 N10        -2.7120    0.4380    0.4560 n         1 MOL     -0.433851
    103 C32        -1.7260   -0.4330   -0.1970 c3        1 MOL      0.202925
    104 C33        -2.3260   -1.6610   -0.9390 c         1 MOL      0.481434
    105 O16        -1.7060   -2.7410   -0.9670 o         1 MOL     -0.474090
    106 C34        -0.6320   -0.8210    0.8110 c3        1 MOL      0.180110
    107 C35         0.6600   -1.3840    0.1360 c         1 MOL      0.681690
    108 O17         1.0210   -0.8110   -0.9550 o         1 MOL     -0.710375
    109 O18         1.4270   -2.1950    0.7230 o         1 MOL     -0.710375
    110 H47        -2.9560    0.2230    1.4060 hn        1 MOL      0.223417
    111 H48        -1.2350    0.1620   -0.9690 h1        1 MOL     -0.009313
    112 H49        -0.9730   -1.6270    1.4530 hc        1 MOL     -0.062607
    113 H50        -0.2780   -0.0150    1.4480 hc        1 MOL     -0.062607
    114 N11        -3.5820   -1.4970   -1.4460 n         1 MOL     -0.499258
    115 C36        -4.4680   -2.5750   -1.9690 c3        1 MOL      0.263475
    116 C37        -4.6880   -3.6520   -0.9070 c         1 MOL      0.032853
    117 O19        -4.6950   -3.3040    0.2890 o         1 MOL     -0.371565
    118 C38        -5.7320   -1.8590   -2.5270 c3        1 MOL     -0.237016
    119 C39        -6.3780   -0.8530   -1.6370 ca        1 MOL      0.094264
    120 C40        -7.1470   -1.2840   -0.5500 ca        1 MOL     -0.192567
    121 C41        -6.1060    0.5310   -1.6390 ca        1 MOL     -0.192567
    122 C42        -7.6680   -0.4520    0.4240 ca        1 MOL     -0.076088
    123 C43        -6.5650    1.3780   -0.6130 ca        1 MOL     -0.076088
    124 C44        -7.3940    0.9100    0.4000 ca        1 MOL     -0.126631
    125 H51        -3.9680   -0.5670   -1.5370 hn        1 MOL      0.311538
    126 H52        -4.0120   -3.0440   -2.8300 h1        1 MOL      0.030572
    127 H53        -6.4610   -2.5440   -2.9390 hc        1 MOL      0.089079
    128 H54        -5.3820   -1.3060   -3.4070 hc        1 MOL      0.089079
    129 H55        -7.2460   -2.3420   -0.3530 ha        1 MOL      0.132464
    130 H56        -5.5370    0.9820   -2.4430 ha        1 MOL      0.132464
    131 H57        -8.1380   -0.9380    1.2580 ha        1 MOL      0.096493
    132 H58        -6.2650    2.4080   -0.6340 ha        1 MOL      0.096493
    133 H59        -7.6830    1.6040    1.1770 ha        1 MOL      0.115856
    134 N12        -4.7440   -4.9440   -1.2210 n         1 MOL      0.135626
    135 C45        -5.0000   -6.0490   -0.2200 c3        1 MOL     -0.043284
    136 C46        -4.1340   -6.1240    1.0210 c         1 MOL      0.393213
    137 O20        -4.6640   -6.3840    2.0820 o         1 MOL     -0.511666
    138 C47        -4.8720   -7.3070   -1.0560 c3        1 MOL      0.127609
    139 C48        -5.4040   -6.8530   -2.3990 c3        1 MOL     -0.051771
    140 C49        -4.7370   -5.4860   -2.5490 c3        1 MOL     -0.092948
    141 H60        -6.0680   -5.9660   -0.0070 h1        1 MOL      0.060544
    142 H61        -3.8130   -7.5470   -1.1530 hc        1 MOL     -0.006596
    143 H62        -5.3980   -8.2030   -0.7440 hc        1 MOL     -0.006596
    144 H63        -5.1850   -7.5420   -3.2280 hc        1 MOL      0.021410
    145 H64        -6.4750   -6.7360   -2.2980 hc        1 MOL      0.021410
    146 H65        -3.6770   -5.5770   -2.7920 h1        1 MOL      0.054166
    147 H66        -5.2620   -4.8460   -3.2560 h1        1 MOL      0.054166
    148 N13        -2.8370   -5.7150    0.9220 n         1 MOL     -0.369042
    149 C50        -1.9770   -5.6350    2.0630 c3        1 MOL      0.050164
    150 C51        -2.5150   -4.7250    3.1680 c         1 MOL      0.382425
    151 O21        -2.1140   -4.9490    4.3370 o         1 MOL     -0.563730
    152 C52        -0.5720   -5.1280    1.6470 c3        1 MOL     -0.066843
    153 C53         0.2210   -6.2020    0.8940 c3        1 MOL     -0.183296
    154 C54         1.4570   -5.6580    0.3060 c         1 MOL      0.853380
    155 O22         2.4890   -5.6880    0.9630 o         1 MOL     -0.793585
    156 O23         1.4330   -5.2370   -0.8660 o         1 MOL     -0.793585
    157 H67        -2.5410   -5.3320    0.0320 hn        1 MOL      0.279823
    158 H68        -1.8580   -6.5970    2.5580 h1        1 MOL      0.091142
    159 H69        -0.0610   -4.9240    2.5890 hc        1 MOL      0.061936
    160 H70        -0.6320   -4.2000    1.0830 hc        1 MOL      0.061936
    161 H71        -0.3760   -6.6270    0.0930 hc        1 MOL      0.015567
    162 H72         0.3220   -7.0250    1.5910 hc        1 MOL      0.015567
    163 N14        -3.4430   -3.7800    2.8620 n         1 MOL      0.000237
    164 C55        -3.9520   -2.8480    3.8920 c3        1 MOL     -0.347635
    165 H73        -4.9390   -2.4880    3.6000 h1        1 MOL      0.120619
    166 H74        -4.0230   -3.3660    4.8480 h1        1 MOL      0.120619
    167 H75        -3.2710   -2.0010    3.9860 h1        1 MOL      0.120619
    168 H76        -3.7250   -3.7430    1.8890 hn        1 MOL      0.111558
    169 Ca1         3.5460   -3.6180   -0.2880 Ca        1 MOL      1.768517
    170 O24         4.0730   -3.3210    2.2500 oh        1 MOL     -0.851206
    171 H77         4.8880   -3.7780    2.4630 ho        1 MOL      0.401328
    172 H78         3.4790   -3.5470    2.9620 ho        1 MOL      0.401328
    173 O25         6.6250   -3.6620    0.2160 oh        1 MOL     -0.851206
    174 H79         6.4450   -3.1630   -0.5850 ho        1 MOL      0.401328
    175 H80         7.5660   -3.7880    0.2190 ho        1 MOL      0.401328
    176 O26         2.5080   -2.3010   -2.4120 oh        1 MOL     -0.851206
    177 H81         1.9400   -1.8090   -1.8290 ho        1 MOL      0.401328
    178 H82         2.2420   -2.0410   -3.2940 ho        1 MOL      0.401328
    179 O27         4.7650   -5.6670   -1.5700 oh        1 MOL     -0.851206
    180 H83         5.2220   -5.7350   -2.4070 ho        1 MOL      0.401328
    181 H84         5.2450   -6.2720   -0.9930 ho        1 MOL      0.401328
@<TRIPOS>BOND
     1    1    2 1   
     2    1    4 1   
     3    1    5 1   
     4    1    6 1   
     5    2    3 2   
     6    2    7 1   
     7    7    8 1   
     8    7   15 1   
     9    8    9 1   
    10    8   11 1   
    11    8   16 1   
    12    9   10 2   
    13    9   19 1   
    14   11   12 1   
    15   11   17 1   
    16   11   18 1   
    17   12   13 1   
    18   12   14 1   
    19   19   20 1   
    20   19   24 1   
    21   20   21 1   
    22   20   23 1   
    23   20   25 1   
    24   21   22 2   
    25   21   29 1   
    26   23   26 1   
    27   23   27 1   
    28   23   28 1   
    29   29   30 1   
    30   29   37 1   
    31   30   31 1   
    32   30   33 1   
    33   30   38 1   
    34   31   32 2   
    35   31   41 1   
    36   33   34 1   
    37   33   39 1   
    38   33   40 1   
    39   34   35 1   
    40   34   36 1   
    41   41   42 1   
    42   41   45 1   
    43   42   43 1   
    44   42   46 1   
    45   42   47 1   
    46   43   44 2   
    47   43   48 1   
    48   48   49 1   
    49   48   56 1   
    50   49   50 1   
    51   49   52 1   
    52   49   57 1   
    53   50   51 2   
    54   50   62 1   
    55   52   53 1   
    56   52   58 1   
    57   52   59 1   
    58   53   54 1   
    59   53   55 2   
    60   54   60 1   
    61   54   61 1   
    62   62   63 1   
    63   62   66 1   
    64   63   64 1   
    65   63   67 1   
    66   63   68 1   
    67   64   65 2   
    68   64   69 1   
    69   69   70 1   
    70   69   76 1   
    71   70   71 1   
    72   70   73 1   
    73   70   77 1   
    74   71   72 2   
    75   71   83 1   
    76   73   74 1   
    77   73   75 1   
    78   73   78 1   
    79   74   80 1   
    80   74   81 1   
    81   74   82 1   
    82   75   79 1   
    83   83   84 1   
    84   83   91 1   
    85   84   85 1   
    86   84   87 1   
    87   84   92 1   
    88   85   86 2   
    89   85  102 1   
    90   87   88 1   
    91   87   89 1   
    92   87   93 1   
    93   88   90 1   
    94   88   94 1   
    95   88   95 1   
    96   89   96 1   
    97   89   97 1   
    98   89   98 1   
    99   90   99 1   
   100   90  100 1   
   101   90  101 1   
   102  102  103 1   
   103  102  110 1   
   104  103  104 1   
   105  103  106 1   
   106  103  111 1   
   107  104  105 2   
   108  104  114 1   
   109  106  107 1   
   110  106  112 1   
   111  106  113 1   
   112  107  108 1   
   113  107  109 1   
   114  114  115 1   
   115  114  125 1   
   116  115  116 1   
   117  115  118 1   
   118  115  126 1   
   119  116  117 2   
   120  116  134 1   
   121  118  119 1   
   122  118  127 1   
   123  118  128 1   
   124  119  120 ar  
   125  119  121 ar  
   126  120  122 ar  
   127  120  129 1   
   128  121  123 ar  
   129  121  130 1   
   130  122  124 ar  
   131  122  131 1   
   132  123  124 ar  
   133  123  132 1   
   134  124  133 1   
   135  134  135 1   
   136  134  140 1   
   137  135  136 1   
   138  135  138 1   
   139  135  141 1   
   140  136  137 2   
   141  136  148 1   
   142  138  139 1   
   143  138  142 1   
   144  138  143 1   
   145  139  140 1   
   146  139  144 1   
   147  139  145 1   
   148  140  146 1   
   149  140  147 1   
   150  148  149 1   
   151  148  157 1   
   152  149  150 1   
   153  149  152 1   
   154  149  158 1   
   155  150  151 2   
   156  150  163 1   
   157  152  153 1   
   158  152  159 1   
   159  152  160 1   
   160  153  154 1   
   161  153  161 1   
   162  153  162 1   
   163  154  155 1   
   164  154  156 1   
   165  163  164 1   
   166  163  168 1   
   167  164  165 1   
   168  164  166 1   
   169  164  167 1   
   170  170  171 1   
   171  170  172 1   
   172  173  174 1   
   173  173  175 1   
   174  176  177 1   
   175  176  178 1   
   176  179  180 1   
   177  179  181 1   
@<TRIPOS>SUBSTRUCTURE
     1 MOL         1 TEMP              0 ****  ****    0 ROOT
