@<TRIPOS>MOLECULE
MOL
  188   182     1     0     0
SMALL
resp


@<TRIPOS>ATOM
      1 C1         -5.4130    1.0100   -3.9300 c3        1 MOL     -0.433435
      2 C2         -6.2740    1.0600   -2.5860 c         1 MOL      0.385309
      3 O1         -5.7420    0.9620   -1.4650 o         1 MOL     -0.317503
      4 H1         -5.1430   -0.0230   -4.1490 hc        1 MOL      0.127756
      5 H2         -6.0020    1.4130   -4.7540 hc        1 MOL      0.127756
      6 H3         -4.5070    1.6040   -3.8040 hc        1 MOL      0.127756
      7 N1         -7.6200    1.1590   -2.6680 n         1 MOL     -0.394938
      8 C3         -8.4930    1.4580   -1.5290 c3        1 MOL      0.153390
      9 C4         -8.1310    0.6220   -0.2620 c         1 MOL      0.232800
     10 O2         -7.9110    1.0140    0.9200 o         1 MOL     -0.376327
     11 C5         -8.5100    2.9230   -1.2260 c3        1 MOL     -0.277136
     12 C6         -9.6490    3.4330   -0.2790 c         1 MOL      0.773260
     13 O3        -10.8430    3.2370   -0.5300 o         1 MOL     -0.685402
     14 O4         -9.2570    4.1030    0.6710 o         1 MOL     -0.685402
     15 H4         -8.0430    1.0000   -3.5660 hn        1 MOL      0.290172
     16 H5         -9.5080    1.0940   -1.7430 h1        1 MOL      0.009957
     17 H6         -8.7190    3.4620   -2.1560 hc        1 MOL      0.072029
     18 H7         -7.4710    3.1950   -1.0170 hc        1 MOL      0.072029
     19 N2         -8.0150   -0.7950   -0.4870 n         1 MOL     -0.304767
     20 C7         -7.8270   -1.8540    0.5440 c3        1 MOL      0.082223
     21 C8         -6.4090   -2.4580    0.5140 c         1 MOL      0.546657
     22 O5         -6.1930   -3.5680    0.9520 o         1 MOL     -0.572018
     23 C9         -8.8190   -2.9220    0.3700 c3        1 MOL     -0.032203
     24 C10       -10.2340   -2.3980    0.4990 c3        1 MOL      0.437810
     25 C11       -11.2970   -3.5440    0.2450 c3        1 MOL     -0.338005
     26 C12       -12.7320   -2.9230    0.2220 c3        1 MOL      0.119144
     27 N3        -13.7860   -3.9580   -0.1310 n4        1 MOL     -0.197256
     28 H8         -8.1750   -1.1840   -1.4000 hn        1 MOL      0.202267
     29 H9         -8.0830   -1.4320    1.5060 h1        1 MOL      0.070660
     30 H10        -8.8070   -3.7170    1.1000 hc        1 MOL     -0.018319
     31 H11        -8.6500   -3.3080   -0.6320 hc        1 MOL     -0.018319
     32 H12       -10.3340   -1.6680   -0.3070 hc        1 MOL     -0.065220
     33 H13       -10.3810   -1.8530    1.4340 hc        1 MOL     -0.065220
     34 H14       -11.2320   -4.2330    1.0790 hc        1 MOL      0.081228
     35 H15       -11.1570   -3.9940   -0.7410 hc        1 MOL      0.081228
     36 H16       -12.6510   -2.1170   -0.5000 hx        1 MOL      0.050625
     37 H17       -12.8960   -2.5450    1.2250 hx        1 MOL      0.050625
     38 H18       -14.7160   -3.5850   -0.1000 hn        1 MOL      0.252301
     39 H19       -13.5120   -4.2790   -1.0420 hn        1 MOL      0.252301
     40 H20       -13.6330   -4.7670    0.4640 hn        1 MOL      0.252301
     41 N4         -5.4400   -1.6680   -0.0350 n         1 MOL     -0.460161
     42 C13        -4.0600   -1.9730   -0.0480 c3        1 MOL      0.009673
     43 C14        -3.4610   -2.4400    1.3630 c         1 MOL      0.477989
     44 O6         -3.5510   -1.7290    2.3910 o         1 MOL     -0.492726
     45 C15        -3.2740   -0.7860   -0.5870 c3        1 MOL     -0.187921
     46 C16        -1.7640   -1.0880   -0.7380 c         1 MOL      0.510440
     47 O7         -1.0260   -0.8640    0.2370 o         1 MOL     -0.721930
     48 O8         -1.2590   -1.4000   -1.8620 o         1 MOL     -0.721930
     49 H21        -5.7900   -0.8940   -0.5900 hn        1 MOL      0.220487
     50 H22        -3.9790   -2.7590   -0.7940 h1        1 MOL      0.050568
     51 H23        -3.3430    0.0070    0.1590 hc        1 MOL      0.156292
     52 H24        -3.6830   -0.4580   -1.5350 hc        1 MOL      0.156292
     53 N5         -2.8000   -3.5780    1.3060 n         1 MOL     -0.016742
     54 C17        -2.3920   -4.2550    2.4870 c3        1 MOL     -0.334431
     55 C18        -1.3160   -3.5120    3.3770 c         1 MOL      0.616614
     56 O9         -0.9900   -4.1240    4.3590 o         1 MOL     -0.546176
     57 H25        -2.8750   -4.1080    0.4550 hn        1 MOL      0.154995
     58 H26        -1.9630   -5.2210    2.2230 h1        1 MOL      0.132020
     59 H27        -3.3230   -4.4540    3.0160 h1        1 MOL      0.132020
     60 N6         -0.7100   -2.3580    2.9870 n         1 MOL     -0.423629
     61 C19         0.0940   -1.5050    3.9280 c3        1 MOL      0.289749
     62 C20        -0.2360   -0.0370    3.7570 c         1 MOL      0.297734
     63 O10         0.6340    0.8200    3.9920 o         1 MOL     -0.498601
     64 C21         1.5860   -1.8860    3.7960 c3        1 MOL     -0.640581
     65 C22         2.2780   -1.3210    2.5960 c         1 MOL      0.899649
     66 N7          3.2710   -0.4750    2.7080 n         1 MOL     -0.784619
     67 O11         1.8910   -1.6790    1.4730 o         1 MOL     -0.735955
     68 H28        -1.0490   -1.9880    2.1140 hn        1 MOL      0.285831
     69 H29        -0.3540   -1.7360    4.8910 h1        1 MOL      0.056932
     70 H30         1.7490   -2.9610    3.6920 hc        1 MOL      0.184705
     71 H31         2.1380   -1.4200    4.6130 hc        1 MOL      0.184705
     72 H32         3.6040   -0.1470    3.5990 hn        1 MOL      0.347004
     73 H33         3.6830   -0.1960    1.8230 hn        1 MOL      0.347004
     74 N8         -1.4480    0.3310    3.2980 n         1 MOL     -0.050795
     75 C23        -2.0360    1.6130    2.9450 c3        1 MOL     -0.318646
     76 C24        -1.3650    2.4460    1.8090 c         1 MOL      0.658138
     77 O12        -1.3870    3.6640    1.9720 o         1 MOL     -0.522535
     78 H34        -2.0570   -0.4740    3.2130 hn        1 MOL      0.095373
     79 H35        -2.0190    2.2310    3.8410 h1        1 MOL      0.135591
     80 H36        -3.0510    1.3770    2.6290 h1        1 MOL      0.135591
     81 N9         -0.6500    1.7860    0.8310 n         1 MOL     -0.573853
     82 C25         0.0050    2.5510   -0.2950 c3        1 MOL      0.545316
     83 C26         1.3450    1.9170   -0.7150 c         1 MOL      0.018264
     84 O13         1.5140    0.7640   -0.4630 o         1 MOL     -0.347573
     85 C27        -0.9990    2.6970   -1.4300 c3        1 MOL      0.009481
     86 C28        -2.0540    3.7480   -1.2560 ca        1 MOL      0.002429
     87 C29        -1.7540    5.0390   -1.5860 ca        1 MOL     -0.150965
     88 C30        -3.3420    3.4670   -0.7340 ca        1 MOL     -0.150965
     89 C31        -2.7290    6.0560   -1.4230 ca        1 MOL     -0.271977
     90 C32        -4.3190    4.5240   -0.5230 ca        1 MOL     -0.271977
     91 C33        -3.9720    5.8330   -0.8580 ca        1 MOL      0.400711
     92 O14        -4.8700    6.8370   -0.7000 oh        1 MOL     -0.535537
     93 H37        -0.7150    0.7730    0.8290 hn        1 MOL      0.339420
     94 H38         0.2440    3.5530    0.0520 h1        1 MOL     -0.067783
     95 H39        -1.6790    1.8490   -1.5900 hc        1 MOL     -0.037575
     96 H40        -0.4530    2.9250   -2.3410 hc        1 MOL     -0.037575
     97 H41        -0.7350    5.2480   -1.8440 ha        1 MOL      0.102455
     98 H42        -3.6460    2.4400   -0.6220 ha        1 MOL      0.102455
     99 H43        -2.4490    7.0360   -1.7750 ha        1 MOL      0.144359
    100 H44        -5.2910    4.2950   -0.1100 ha        1 MOL      0.144359
    101 H45        -5.7260    6.4010   -0.6870 ho        1 MOL      0.405218
    102 N10         2.2490    2.6900   -1.2620 n         1 MOL     -0.256731
    103 C34         3.6680    2.2450   -1.4390 c3        1 MOL      0.044071
    104 C35         4.2980    2.1440   -0.0880 c         1 MOL      0.432572
    105 O15         4.8140    1.0820    0.2850 o         1 MOL     -0.397736
    106 C36         4.5040    3.2310   -2.2930 c3        1 MOL      0.030524
    107 C37         3.8670    3.5960   -3.6720 c3        1 MOL     -0.108354
    108 C38         5.9020    2.6650   -2.5630 c3        1 MOL     -0.428791
    109 C39         3.4520    2.3320   -4.5300 c3        1 MOL     -0.107729
    110 H46         2.0580    3.6820   -1.3760 hn        1 MOL      0.279366
    111 H47         3.7170    1.2450   -1.8720 h1        1 MOL      0.092666
    112 H48         4.5470    4.1830   -1.7610 hc        1 MOL     -0.002900
    113 H49         4.4520    4.1980   -4.3650 hc        1 MOL      0.045954
    114 H50         3.0000    4.1480   -3.3140 hc        1 MOL      0.045954
    115 H51         5.8240    1.6340   -2.9000 hc        1 MOL      0.132917
    116 H52         6.4220    3.2800   -3.2990 hc        1 MOL      0.132917
    117 H53         6.5500    2.6540   -1.6870 hc        1 MOL      0.132917
    118 H54         2.6980    2.5540   -5.2900 hc        1 MOL      0.039459
    119 H55         4.3230    1.9180   -5.0270 hc        1 MOL      0.039459
    120 H56         3.0490    1.5390   -3.8980 hc        1 MOL      0.039459
    121 N11         4.3060    3.2390    0.6860 n         1 MOL     -0.097085
    122 C40         4.6420    3.1880    2.0980 c3        1 MOL     -0.031093
    123 C41         6.0870    2.9540    2.3920 c         1 MOL      0.237671
    124 O16         6.4740    2.4010    3.4470 o         1 MOL     -0.448324
    125 C42         4.2700    4.4530    2.8150 c3        1 MOL      0.160167
    126 O17         2.8640    4.6900    2.7100 oh        1 MOL     -0.631556
    127 H57         3.8890    4.0990    0.3750 hn        1 MOL      0.185176
    128 H58         4.0680    2.3660    2.5170 h1        1 MOL      0.146138
    129 H59         4.8530    5.3400    2.5710 h1        1 MOL      0.046675
    130 H60         4.4780    4.2630    3.8680 h1        1 MOL      0.046675
    131 H61         2.6760    5.4330    3.2840 ho        1 MOL      0.425036
    132 N12         6.9880    3.2250    1.3910 n         1 MOL     -0.220865
    133 C43         8.3510    2.6820    1.3660 c3        1 MOL      0.303251
    134 C44         8.5230    1.1610    1.6810 c         1 MOL      0.373731
    135 O18         9.4030    0.7270    2.4050 o         1 MOL     -0.492174
    136 C45         9.3040    3.5490    2.1630 c3        1 MOL     -0.484517
    137 H62         6.5690    3.7780    0.6610 hn        1 MOL      0.141950
    138 H63         8.6700    2.7510    0.3160 h1        1 MOL      0.002962
    139 H64         8.9050    3.5690    3.1770 hc        1 MOL      0.131052
    140 H65        10.2760    3.0620    2.2380 hc        1 MOL      0.131052
    141 H66         9.2970    4.5730    1.7870 hc        1 MOL      0.131052
    142 N13         7.6330    0.4060    1.0740 n         1 MOL     -0.217446
    143 C46         7.6640   -1.0340    1.1560 c3        1 MOL      0.149692
    144 C47         7.3430   -1.6470   -0.2330 c         1 MOL      0.461465
    145 O19         6.6210   -1.0070   -1.0290 o         1 MOL     -0.466462
    146 C48         6.6470   -1.4250    2.3250 c3        1 MOL     -0.197411
    147 H67         6.9040    0.8110    0.5020 hn        1 MOL      0.000882
    148 H68         8.6660   -1.3580    1.4270 h1        1 MOL      0.019863
    149 H69         5.6540   -1.5970    1.9420 hc        1 MOL      0.075703
    150 H70         7.0080   -2.2710    2.9150 hc        1 MOL      0.075703
    151 H71         6.6280   -0.6160    3.0540 hc        1 MOL      0.075703
    152 N14         7.6720   -2.8880   -0.4010 n         1 MOL     -0.623196
    153 C49         7.3510   -3.8380   -1.5650 c3        1 MOL     -0.050434
    154 C50         7.9540   -3.2060   -2.8220 c         1 MOL      0.510247
    155 O20         7.6010   -3.6040   -3.9590 o         1 MOL     -0.531678
    156 C51         5.8720   -4.2240   -1.7310 c3        1 MOL      0.212086
    157 C52         5.1040   -4.4610   -0.4770 c3        1 MOL     -0.040098
    158 C53         3.6430   -4.7210   -0.7570 c         1 MOL      0.696770
    159 O21         3.1560   -5.8040   -0.4820 o         1 MOL     -0.697695
    160 O22         2.9240   -3.7830   -1.0330 o         1 MOL     -0.697695
    161 H72         8.0170   -3.3040    0.4550 hn        1 MOL      0.363526
    162 H73         7.9070   -4.7620   -1.3990 h1        1 MOL      0.116049
    163 H74         5.7530   -5.0860   -2.3830 hc        1 MOL     -0.061974
    164 H75         5.4450   -3.3000   -2.1410 hc        1 MOL     -0.061974
    165 H76         5.2750   -3.5720    0.1360 hc        1 MOL     -0.029885
    166 H77         5.5370   -5.2160    0.1840 hc        1 MOL     -0.029885
    167 N15         9.0240   -2.4310   -2.7110 n         1 MOL     -0.357031
    168 C54         9.7260   -1.6910   -3.8020 c3        1 MOL     -0.072819
    169 H78         9.6140   -0.6190   -3.6430 h1        1 MOL      0.075489
    170 H79        10.7850   -1.9500   -3.7940 h1        1 MOL      0.075489
    171 H80         9.2910   -1.9630   -4.7640 h1        1 MOL      0.075489
    172 H81         9.3730   -2.1280   -1.8160 hn        1 MOL      0.266566
    173 Ca1         1.2820   -1.8550   -1.1380 Ca        1 MOL      1.836270
    174 O23         0.5800   -0.0350   -3.1170 oh        1 MOL     -0.852113
    175 H82        -0.3360   -0.3330   -3.1270 ho        1 MOL      0.414947
    176 H83         0.5550    0.7990   -3.5870 ho        1 MOL      0.414947
    177 O24         3.2450   -2.0380   -3.2830 oh        1 MOL     -0.852113
    178 H84         3.2640   -2.6040   -4.0440 ho        1 MOL      0.414947
    179 H85         4.1620   -1.8350   -3.1090 ho        1 MOL      0.414947
    180 O25         3.9000   -1.1480   -0.6860 oh        1 MOL     -0.852113
    181 H86         4.4570   -0.4390   -0.3710 ho        1 MOL      0.414947
    182 H87         4.5120   -1.8340   -0.9450 ho        1 MOL      0.414947
    183 O26         0.6050   -3.5070   -3.3960 oh        1 MOL     -0.852113
    184 H88        -0.2480   -3.5390   -3.8260 ho        1 MOL      0.414947
    185 H89         1.2390   -3.7160   -4.0880 ho        1 MOL      0.414947
    186 O27        -0.2490   -3.7700   -0.4540 oh        1 MOL     -0.852113
    187 H90        -0.0600   -4.4420    0.1990 ho        1 MOL      0.414947
    188 H91        -0.9950   -4.1000   -0.9510 ho        1 MOL      0.414947
@<TRIPOS>BOND
     1    1    2 1   
     2    1    4 1   
     3    1    5 1   
     4    1    6 1   
     5    2    3 2   
     6    2    7 1   
     7    7    8 1   
     8    7   15 1   
     9    8    9 1   
    10    8   11 1   
    11    8   16 1   
    12    9   10 2   
    13    9   19 1   
    14   11   12 1   
    15   11   17 1   
    16   11   18 1   
    17   12   13 1   
    18   12   14 1   
    19   19   20 1   
    20   19   28 1   
    21   20   21 1   
    22   20   23 1   
    23   20   29 1   
    24   21   22 2   
    25   21   41 1   
    26   23   24 1   
    27   23   30 1   
    28   23   31 1   
    29   24   25 1   
    30   24   32 1   
    31   24   33 1   
    32   25   26 1   
    33   25   34 1   
    34   25   35 1   
    35   26   27 1   
    36   26   36 1   
    37   26   37 1   
    38   27   38 1   
    39   27   39 1   
    40   27   40 1   
    41   41   42 1   
    42   41   49 1   
    43   42   43 1   
    44   42   45 1   
    45   42   50 1   
    46   43   44 2   
    47   43   53 1   
    48   45   46 1   
    49   45   51 1   
    50   45   52 1   
    51   46   47 1   
    52   46   48 1   
    53   53   54 1   
    54   53   57 1   
    55   54   55 1   
    56   54   58 1   
    57   54   59 1   
    58   55   56 2   
    59   55   60 1   
    60   60   61 1   
    61   60   68 1   
    62   61   62 1   
    63   61   64 1   
    64   61   69 1   
    65   62   63 2   
    66   62   74 1   
    67   64   65 1   
    68   64   70 1   
    69   64   71 1   
    70   65   66 1   
    71   65   67 2   
    72   66   72 1   
    73   66   73 1   
    74   74   75 1   
    75   74   78 1   
    76   75   76 1   
    77   75   79 1   
    78   75   80 1   
    79   76   77 2   
    80   76   81 1   
    81   81   82 1   
    82   81   93 1   
    83   82   83 1   
    84   82   85 1   
    85   82   94 1   
    86   83   84 2   
    87   83  102 1   
    88   85   86 1   
    89   85   95 1   
    90   85   96 1   
    91   86   87 ar  
    92   86   88 ar  
    93   87   89 ar  
    94   87   97 1   
    95   88   90 ar  
    96   88   98 1   
    97   89   91 ar  
    98   89   99 1   
    99   90   91 ar  
   100   90  100 1   
   101   91   92 1   
   102   92  101 1   
   103  102  103 1   
   104  102  110 1   
   105  103  104 1   
   106  103  106 1   
   107  103  111 1   
   108  104  105 2   
   109  104  121 1   
   110  106  107 1   
   111  106  108 1   
   112  106  112 1   
   113  107  109 1   
   114  107  113 1   
   115  107  114 1   
   116  108  115 1   
   117  108  116 1   
   118  108  117 1   
   119  109  118 1   
   120  109  119 1   
   121  109  120 1   
   122  121  122 1   
   123  121  127 1   
   124  122  123 1   
   125  122  125 1   
   126  122  128 1   
   127  123  124 2   
   128  123  132 1   
   129  125  126 1   
   130  125  129 1   
   131  125  130 1   
   132  126  131 1   
   133  132  133 1   
   134  132  137 1   
   135  133  134 1   
   136  133  136 1   
   137  133  138 1   
   138  134  135 2   
   139  134  142 1   
   140  136  139 1   
   141  136  140 1   
   142  136  141 1   
   143  142  143 1   
   144  142  147 1   
   145  143  144 1   
   146  143  146 1   
   147  143  148 1   
   148  144  145 2   
   149  144  152 1   
   150  146  149 1   
   151  146  150 1   
   152  146  151 1   
   153  152  153 1   
   154  152  161 1   
   155  153  154 1   
   156  153  156 1   
   157  153  162 1   
   158  154  155 2   
   159  154  167 1   
   160  156  157 1   
   161  156  163 1   
   162  156  164 1   
   163  157  158 1   
   164  157  165 1   
   165  157  166 1   
   166  158  159 1   
   167  158  160 1   
   168  167  168 1   
   169  167  172 1   
   170  168  169 1   
   171  168  170 1   
   172  168  171 1   
   173  174  175 1   
   174  174  176 1   
   175  177  178 1   
   176  177  179 1   
   177  180  181 1   
   178  180  182 1   
   179  183  184 1   
   180  183  185 1   
   181  186  187 1   
   182  186  188 1   
@<TRIPOS>SUBSTRUCTURE
     1 MOL         1 TEMP              0 ****  ****    0 ROOT
