@<TRIPOS>MOLECULE
MOL
  182   178     1     0     0
SMALL
resp


@<TRIPOS>ATOM
      1 C1          0.4570   -4.1030    6.1950 c3        1 MOL     -0.312664
      2 C2          0.7720   -3.9440    4.6680 c         1 MOL      0.759355
      3 O1         -0.1610   -4.1200    3.8190 o         1 MOL     -0.632693
      4 H1          1.0920   -3.4270    6.7690 hc        1 MOL      0.097368
      5 H2         -0.5890   -3.8580    6.3780 hc        1 MOL      0.097368
      6 H3          0.6500   -5.1300    6.5020 hc        1 MOL      0.097368
      7 N1          1.9110   -3.5110    4.1900 n         1 MOL     -0.597667
      8 C3          2.3180   -3.3390    2.7570 c3        1 MOL     -0.165252
      9 C4          2.6170   -4.6350    1.9990 c         1 MOL      0.795671
     10 O2          3.1570   -5.5650    2.5700 o         1 MOL     -0.563066
     11 C5          3.4220   -2.2900    2.7470 c3        1 MOL     -0.129655
     12 C6          3.5180   -1.4950    1.4110 c         1 MOL      0.458331
     13 O3          4.1730   -0.3990    1.4120 o         1 MOL     -0.665367
     14 O4          2.8630   -1.8400    0.4000 o         1 MOL     -0.665367
     15 H4          2.6610   -3.3620    4.8520 hn        1 MOL      0.322840
     16 H5          1.4570   -2.8730    2.2740 h1        1 MOL      0.200296
     17 H6          4.3910   -2.7410    2.9460 hc        1 MOL      0.099589
     18 H7          3.2630   -1.5270    3.5160 hc        1 MOL      0.099589
     19 N2          2.4770   -4.6090    0.6660 n         1 MOL     -0.642507
     20 C7          2.8800   -5.6310   -0.3040 c3        1 MOL      0.076403
     21 C8          4.1980   -5.3450   -1.1450 c         1 MOL      0.495486
     22 O5          4.6360   -6.2600   -1.8710 o         1 MOL     -0.544277
     23 C9          1.7000   -6.0300   -1.1170 c3        1 MOL     -0.203037
     24 C10         1.2600   -4.8470   -2.0540 c3        1 MOL      0.110010
     25 C11         0.1750   -5.2760   -3.0030 c3        1 MOL     -0.180473
     26 C12        -0.6120   -4.0900   -3.5920 c3        1 MOL      0.240335
     27 N3         -1.5380   -4.5680   -4.6080 n4        1 MOL     -0.378887
     28 H8          2.0260   -3.8270    0.2200 hn        1 MOL      0.291450
     29 H9          3.2020   -6.5610    0.1740 h1        1 MOL      0.107078
     30 H10         0.9530   -6.4460   -0.4350 hc        1 MOL      0.083433
     31 H11         1.9810   -6.8170   -1.8090 hc        1 MOL      0.083433
     32 H12         2.0770   -4.5400   -2.7120 hc        1 MOL      0.035801
     33 H13         0.9870   -3.9890   -1.4370 hc        1 MOL      0.035801
     34 H14        -0.4690   -5.9180   -2.4030 hc        1 MOL      0.055950
     35 H15         0.6660   -5.7620   -3.8360 hc        1 MOL      0.055950
     36 H16         0.0810   -3.4650   -4.1620 hx        1 MOL      0.013541
     37 H17        -1.0030   -3.4900   -2.7660 hx        1 MOL      0.013541
     38 H18        -0.9370   -4.9170   -5.3370 hn        1 MOL      0.276510
     39 H19        -2.0830   -5.3680   -4.3150 hn        1 MOL      0.276510
     40 H20        -2.2170   -3.8960   -4.9220 hn        1 MOL      0.276510
     41 N4          4.8350   -4.1990   -0.9670 n         1 MOL     -0.379963
     42 C13         6.1010   -3.7130   -1.6110 c3        1 MOL      0.078251
     43 C14         7.0780   -2.9470   -0.6130 c         1 MOL      0.337096
     44 O6          8.3080   -2.8450   -0.7030 o         1 MOL     -0.514648
     45 C15         5.8100   -2.9340   -2.8370 c3        1 MOL     -0.295254
     46 C16         4.8870   -1.7280   -2.6160 c         1 MOL      0.780420
     47 O7          3.7900   -1.6870   -3.2050 o         1 MOL     -0.760381
     48 O8          4.9630   -0.9470   -1.6560 o         1 MOL     -0.760381
     49 H21         4.3380   -3.5510   -0.3660 hn        1 MOL      0.274065
     50 H22         6.6260   -4.6260   -1.8970 h1        1 MOL      0.119890
     51 H23         5.3880   -3.6520   -3.5410 hc        1 MOL      0.104842
     52 H24         6.7330   -2.5580   -3.2710 hc        1 MOL      0.104842
     53 N5          6.4990   -2.3010    0.4100 n         1 MOL     -0.062400
     54 C17         7.2480   -1.5320    1.4180 c3        1 MOL     -0.106128
     55 C18         7.2650   -0.0190    1.1430 c         1 MOL      0.523650
     56 O9          7.8800    0.6630    1.9860 o         1 MOL     -0.582963
     57 H25         5.4960   -2.3790    0.4750 hn        1 MOL      0.057878
     58 H26         8.2830   -1.8550    1.4850 h1        1 MOL      0.088112
     59 H27         6.7650   -1.8020    2.3540 h1        1 MOL      0.088112
     60 N6          6.7790    0.5150    0.0530 n         1 MOL     -0.095896
     61 C19         7.0190    1.8810   -0.3590 c3        1 MOL      0.014644
     62 C20         5.6940    2.6550   -0.6540 c         1 MOL      0.410392
     63 O10         4.6010    2.1910   -0.5450 o         1 MOL     -0.414031
     64 C21         7.9420    1.7360   -1.6140 c3        1 MOL     -0.240079
     65 C22         7.1590    1.5380   -2.9170 c         1 MOL      0.561501
     66 N7          6.6570    2.5450   -3.5730 n         1 MOL     -0.724395
     67 O11         7.0650    0.3890   -3.3970 o         1 MOL     -0.515776
     68 H28         6.3900   -0.1050   -0.6470 hn        1 MOL      0.188397
     69 H29         7.6630    2.3200    0.4040 h1        1 MOL      0.069730
     70 H30         8.7320    0.9950   -1.4300 hc        1 MOL      0.096070
     71 H31         8.4680    2.6680   -1.7850 hc        1 MOL      0.096070
     72 H32         6.9650    3.4840   -3.4130 hn        1 MOL      0.338090
     73 H33         6.3510    2.2850   -4.5040 hn        1 MOL      0.338090
     74 N8          5.8600    3.9390   -0.9950 n         1 MOL     -0.324454
     75 C23         4.8040    5.0190   -0.9720 c3        1 MOL     -0.313285
     76 C24         3.8780    4.9870    0.2430 c         1 MOL      0.683914
     77 O12         4.3380    4.8610    1.3660 o         1 MOL     -0.489680
     78 H34         6.7900    4.2550   -1.2310 hn        1 MOL      0.279853
     79 H35         4.2430    4.9610   -1.9080 h1        1 MOL      0.122240
     80 H36         5.3450    5.9660   -0.9000 h1        1 MOL      0.122240
     81 N9          2.5470    5.0000   -0.0490 n         1 MOL     -0.707273
     82 C25         1.4870    4.6570    0.8280 c3        1 MOL      0.475422
     83 C26         1.4050    3.1940    1.1800 c         1 MOL      0.491937
     84 O13         2.2120    2.3700    0.7750 o         1 MOL     -0.460196
     85 C27         0.1590    5.2190    0.2660 c3        1 MOL     -0.117523
     86 C28         0.1080    6.7380    0.0980 ca        1 MOL      0.041271
     87 C29        -0.4000    7.2520   -1.0960 ca        1 MOL     -0.197760
     88 C30         0.4280    7.5500    1.2150 ca        1 MOL     -0.197760
     89 C31        -0.5590    8.6580   -1.1900 ca        1 MOL     -0.175192
     90 C32         0.2280    8.9520    1.1010 ca        1 MOL     -0.175192
     91 C33        -0.1950    9.4830   -0.1170 ca        1 MOL      0.252531
     92 O14        -0.4570   10.8140   -0.1320 oh        1 MOL     -0.453429
     93 H37         2.3060    5.1460   -1.0210 hn        1 MOL      0.307866
     94 H38         1.6890    5.1890    1.7520 h1        1 MOL      0.009736
     95 H39        -0.6890    5.0120    0.9220 hc        1 MOL      0.031567
     96 H40        -0.0840    4.6870   -0.6540 hc        1 MOL      0.031567
     97 H41        -0.6300    6.5720   -1.9120 ha        1 MOL      0.138745
     98 H42         0.6940    7.1090    2.1650 ha        1 MOL      0.138745
     99 H43        -0.9160    9.1410   -2.0830 ha        1 MOL      0.143137
    100 H44         0.4800    9.5630    1.9570 ha        1 MOL      0.143137
    101 H45        -0.9870   11.1270   -0.8630 ho        1 MOL      0.359007
    102 N10         0.4390    2.8420    2.0180 n         1 MOL     -0.811416
    103 C34        -0.0090    1.5000    2.4490 c3        1 MOL      0.236988
    104 C35        -0.2950    0.4170    1.3630 c         1 MOL      0.414727
    105 O15         0.5190    0.1530    0.4780 o         1 MOL     -0.479613
    106 C36         0.9540    0.9040    3.5470 c3        1 MOL      0.312670
    107 C37         0.2580   -0.3000    4.2800 c3        1 MOL     -0.208061
    108 C38         1.6180    1.9780    4.5070 c3        1 MOL     -0.392447
    109 C39        -0.6900    0.1940    5.4390 c3        1 MOL     -0.202637
    110 H46        -0.0950    3.5870    2.4370 hn        1 MOL      0.332234
    111 H47        -0.9330    1.7070    2.9650 h1        1 MOL      0.052783
    112 H48         1.7740    0.4640    2.9940 hc        1 MOL      0.005585
    113 H49         1.0790   -0.8900    4.7060 hc        1 MOL      0.051278
    114 H50        -0.2510   -0.9780    3.5960 hc        1 MOL      0.051278
    115 H51         2.3370    1.5070    5.1610 hc        1 MOL      0.112435
    116 H52         2.2870    2.5900    3.8940 hc        1 MOL      0.112435
    117 H53         0.9210    2.5210    5.1470 hc        1 MOL      0.112435
    118 H54        -0.2690    0.7900    6.2540 hc        1 MOL      0.056749
    119 H55        -1.3230    0.9180    4.9300 hc        1 MOL      0.056749
    120 H56        -1.3550   -0.6120    5.7790 hc        1 MOL      0.056749
    121 N11        -1.4350   -0.3140    1.4610 n         1 MOL     -0.439549
    122 C40        -1.8170   -1.5170    0.6860 c3        1 MOL      0.019016
    123 C41        -3.2410   -1.4860    0.1760 c         1 MOL      0.434262
    124 O16        -3.8130   -2.4730   -0.2970 o         1 MOL     -0.502841
    125 C42        -1.5770   -2.8120    1.5040 c3        1 MOL      0.562522
    126 O17        -2.2180   -2.7160    2.8130 oh        1 MOL     -0.620807
    127 H57        -2.1140    0.0770    2.0920 hn        1 MOL      0.259879
    128 H58        -1.1730   -1.5160   -0.1850 h1        1 MOL      0.080506
    129 H59        -0.4920   -2.7840    1.6680 h1        1 MOL     -0.099155
    130 H60        -1.9060   -3.6610    0.9100 h1        1 MOL     -0.099155
    131 H61        -1.5520   -3.0500    3.4150 ho        1 MOL      0.368079
    132 N12        -3.9380   -0.3370    0.4080 n         1 MOL     -0.421153
    133 C43        -5.3540   -0.1020    0.0280 c3        1 MOL      0.059255
    134 C44        -5.5170    0.6780   -1.3360 c         1 MOL      0.580789
    135 O18        -4.7180    1.5620   -1.6540 o         1 MOL     -0.576281
    136 C45        -6.0190    0.6040    1.2250 c3        1 MOL     -0.073947
    137 H62        -3.4990    0.4390    0.8850 hn        1 MOL      0.221441
    138 H63        -5.8980   -1.0460    0.0310 h1        1 MOL      0.150079
    139 H64        -5.9400    0.0850    2.1790 hc        1 MOL      0.043154
    140 H65        -5.5920    1.5960    1.3820 hc        1 MOL      0.043154
    141 H66        -7.0870    0.7680    1.0770 hc        1 MOL      0.043154
    142 N13        -6.6400    0.4570   -2.0010 n         1 MOL     -0.623637
    143 C46        -7.7530   -0.5340   -1.6990 c3        1 MOL      0.284145
    144 C47        -9.0710   -0.1180   -2.3480 c         1 MOL      0.437263
    145 O19        -9.0830    0.3760   -3.4670 o         1 MOL     -0.528768
    146 C48        -7.3610   -1.9540   -2.0560 c3        1 MOL     -0.257552
    147 H67        -6.8380    1.0460   -2.7950 hn        1 MOL      0.341569
    148 H68        -7.8710   -0.6330   -0.6190 h1        1 MOL     -0.032325
    149 H69        -8.1220   -2.6010   -1.6320 hc        1 MOL      0.075201
    150 H70        -7.4080   -2.0930   -3.1420 hc        1 MOL      0.075201
    151 H71        -6.4210   -2.2550   -1.5970 hc        1 MOL      0.075201
    152 N14       -10.2350   -0.1580   -1.6400 n         1 MOL     -0.436823
    153 C49       -10.4220   -0.5420   -0.2380 c3        1 MOL      0.010133
    154 C50        -9.8040    0.5620    0.6910 c         1 MOL      0.311696
    155 O20        -9.2850    0.2840    1.8020 o         1 MOL     -0.483801
    156 C51       -11.8900   -0.6110    0.0860 c3        1 MOL      0.152610
    157 C52       -12.6020   -1.7640   -0.5770 c3        1 MOL     -0.355399
    158 C53       -14.1660   -1.6810   -0.4970 c         1 MOL      0.750600
    159 O21       -14.8680   -2.1890   -1.3830 o         1 MOL     -0.666201
    160 O22       -14.7090   -1.0280    0.3910 o         1 MOL     -0.666201
    161 H72       -11.0220    0.1650   -2.1820 hn        1 MOL      0.328746
    162 H73       -10.0470   -1.5320    0.0030 h1        1 MOL      0.088086
    163 H74       -12.4220    0.3040   -0.1850 hc        1 MOL      0.013717
    164 H75       -12.0600   -0.8250    1.1410 hc        1 MOL      0.013717
    165 H76       -12.2730   -2.6160    0.0220 hc        1 MOL      0.059431
    166 H77       -12.2830   -1.9430   -1.6060 hc        1 MOL      0.059431
    167 N15        -9.7940    1.7620    0.1250 n         1 MOL     -0.181964
    168 C54        -9.3970    2.8830    0.9350 c3        1 MOL     -0.300085
    169 H78        -8.3820    2.7260    1.2990 h1        1 MOL      0.122206
    170 H79        -9.4320    3.7930    0.3390 h1        1 MOL      0.122206
    171 H80       -10.0750    2.9770    1.7830 h1        1 MOL      0.122206
    172 H81       -10.3110    1.9370   -0.7210 hn        1 MOL      0.246762
    173 Ca1         2.7790    0.3480   -1.0700 Ca        1 MOL      1.781425
    174 O23         3.7830    1.2920   -3.3040 oh        1 MOL     -0.852172
    175 H82         4.6680    1.0440   -3.5690 ho        1 MOL      0.410129
    176 H83         3.5300    1.9900   -3.9140 ho        1 MOL      0.410129
    177 O24         0.6500   -1.0730   -2.5570 oh        1 MOL     -0.852172
    178 H84        -0.2700   -0.8160   -2.6710 ho        1 MOL      0.410129
    179 H85         1.0430   -0.9180   -3.4170 ho        1 MOL      0.410129
    180 O25         1.1290    2.2740   -1.9010 oh        1 MOL     -0.852172
    181 H86         1.0850    3.0500   -2.4680 ho        1 MOL      0.410129
    182 H87         0.2180    2.0710   -1.7030 ho        1 MOL      0.410129
@<TRIPOS>BOND
     1    1    2 1   
     2    1    4 1   
     3    1    5 1   
     4    1    6 1   
     5    2    3 2   
     6    2    7 1   
     7    7    8 1   
     8    7   15 1   
     9    8    9 1   
    10    8   11 1   
    11    8   16 1   
    12    9   10 2   
    13    9   19 1   
    14   11   12 1   
    15   11   17 1   
    16   11   18 1   
    17   12   13 1   
    18   12   14 1   
    19   19   20 1   
    20   19   28 1   
    21   20   21 1   
    22   20   23 1   
    23   20   29 1   
    24   21   22 2   
    25   21   41 1   
    26   23   24 1   
    27   23   30 1   
    28   23   31 1   
    29   24   25 1   
    30   24   32 1   
    31   24   33 1   
    32   25   26 1   
    33   25   34 1   
    34   25   35 1   
    35   26   27 1   
    36   26   36 1   
    37   26   37 1   
    38   27   38 1   
    39   27   39 1   
    40   27   40 1   
    41   41   42 1   
    42   41   49 1   
    43   42   43 1   
    44   42   45 1   
    45   42   50 1   
    46   43   44 2   
    47   43   53 1   
    48   45   46 1   
    49   45   51 1   
    50   45   52 1   
    51   46   47 1   
    52   46   48 1   
    53   53   54 1   
    54   53   57 1   
    55   54   55 1   
    56   54   58 1   
    57   54   59 1   
    58   55   56 2   
    59   55   60 1   
    60   60   61 1   
    61   60   68 1   
    62   61   62 1   
    63   61   64 1   
    64   61   69 1   
    65   62   63 2   
    66   62   74 1   
    67   64   65 1   
    68   64   70 1   
    69   64   71 1   
    70   65   66 1   
    71   65   67 2   
    72   66   72 1   
    73   66   73 1   
    74   74   75 1   
    75   74   78 1   
    76   75   76 1   
    77   75   79 1   
    78   75   80 1   
    79   76   77 2   
    80   76   81 1   
    81   81   82 1   
    82   81   93 1   
    83   82   83 1   
    84   82   85 1   
    85   82   94 1   
    86   83   84 2   
    87   83  102 1   
    88   85   86 1   
    89   85   95 1   
    90   85   96 1   
    91   86   87 ar  
    92   86   88 ar  
    93   87   89 ar  
    94   87   97 1   
    95   88   90 ar  
    96   88   98 1   
    97   89   91 ar  
    98   89   99 1   
    99   90   91 ar  
   100   90  100 1   
   101   91   92 1   
   102   92  101 1   
   103  102  103 1   
   104  102  110 1   
   105  103  104 1   
   106  103  106 1   
   107  103  111 1   
   108  104  105 2   
   109  104  121 1   
   110  106  107 1   
   111  106  108 1   
   112  106  112 1   
   113  107  109 1   
   114  107  113 1   
   115  107  114 1   
   116  108  115 1   
   117  108  116 1   
   118  108  117 1   
   119  109  118 1   
   120  109  119 1   
   121  109  120 1   
   122  121  122 1   
   123  121  127 1   
   124  122  123 1   
   125  122  125 1   
   126  122  128 1   
   127  123  124 2   
   128  123  132 1   
   129  125  126 1   
   130  125  129 1   
   131  125  130 1   
   132  126  131 1   
   133  132  133 1   
   134  132  137 1   
   135  133  134 1   
   136  133  136 1   
   137  133  138 1   
   138  134  135 2   
   139  134  142 1   
   140  136  139 1   
   141  136  140 1   
   142  136  141 1   
   143  142  143 1   
   144  142  147 1   
   145  143  144 1   
   146  143  146 1   
   147  143  148 1   
   148  144  145 2   
   149  144  152 1   
   150  146  149 1   
   151  146  150 1   
   152  146  151 1   
   153  152  153 1   
   154  152  161 1   
   155  153  154 1   
   156  153  156 1   
   157  153  162 1   
   158  154  155 2   
   159  154  167 1   
   160  156  157 1   
   161  156  163 1   
   162  156  164 1   
   163  157  158 1   
   164  157  165 1   
   165  157  166 1   
   166  158  159 1   
   167  158  160 1   
   168  167  168 1   
   169  167  172 1   
   170  168  169 1   
   171  168  170 1   
   172  168  171 1   
   173  174  175 1   
   174  174  176 1   
   175  177  178 1   
   176  177  179 1   
   177  180  181 1   
   178  180  182 1   
@<TRIPOS>SUBSTRUCTURE
     1 MOL         1 TEMP              0 ****  ****    0 ROOT
