@<TRIPOS>MOLECULE
MOL
  192   187     1     0     0
SMALL
resp


@<TRIPOS>ATOM
      1 C1         11.6010    6.4250   -3.1010 c3        1 MOL     -0.307376
      2 C2         11.6010    5.0840   -2.4030 c         1 MOL      0.752815
      3 O1         12.6690    4.4920   -2.3080 o         1 MOL     -0.610053
      4 H1         12.6160    6.6720   -3.4100 hc        1 MOL      0.079546
      5 H2         10.9550    6.3790   -3.9780 hc        1 MOL      0.079546
      6 H3         11.2330    7.1910   -2.4180 hc        1 MOL      0.079546
      7 N1         10.5040    4.5470   -1.9270 n         1 MOL     -0.410399
      8 C3         10.4880    3.4510   -0.9280 c3        1 MOL     -0.133084
      9 C4          9.1500    2.6950   -0.9630 c         1 MOL      0.570133
     10 O2          8.0290    3.1940   -1.2120 o         1 MOL     -0.646630
     11 C5         10.6770    4.0060    0.4470 c3        1 MOL      0.103906
     12 C6          9.8710    5.2420    0.8800 c         1 MOL      0.583983
     13 O3          8.9420    5.7400    0.2070 o         1 MOL     -0.670857
     14 O4         10.3080    5.9200    1.8390 o         1 MOL     -0.670857
     15 H4          9.7300    5.1900   -1.9240 hn        1 MOL      0.152336
     16 H5         11.2610    2.7410   -1.2410 h1        1 MOL      0.072996
     17 H6         11.7360    4.2510    0.4820 hc        1 MOL      0.009906
     18 H7         10.4740    3.1710    1.1110 hc        1 MOL      0.009906
     19 N2          9.2770    1.3700   -0.7630 n         1 MOL     -0.416408
     20 C7          8.2420    0.3850   -0.9150 c3        1 MOL      0.094846
     21 C8          7.5340    0.1230    0.3900 c         1 MOL      0.635449
     22 O5          8.1260   -0.3980    1.3390 o         1 MOL     -0.530013
     23 C9          8.9200   -0.8310   -1.5310 c3        1 MOL     -0.434131
     24 C10         8.0160   -2.0100   -1.6640 c3        1 MOL      0.186723
     25 C11         8.8050   -3.2810   -2.1160 c3        1 MOL     -0.176908
     26 C12         7.8970   -4.5510   -2.1730 c3        1 MOL      0.039778
     27 N3          8.7420   -5.6860   -2.4570 n4        1 MOL     -0.238688
     28 H8         10.1840    1.0520   -0.4370 hn        1 MOL      0.314615
     29 H9          7.5640    0.7490   -1.6900 h1        1 MOL      0.107024
     30 H10         9.8000   -0.9800   -0.9130 hc        1 MOL      0.122693
     31 H11         9.1720   -0.4260   -2.5060 hc        1 MOL      0.122693
     32 H12         7.3210   -1.7350   -2.4540 hc        1 MOL      0.015080
     33 H13         7.4770   -2.2580   -0.7460 hc        1 MOL      0.015080
     34 H14         9.5410   -3.6170   -1.3800 hc        1 MOL      0.077541
     35 H15         9.2740   -3.0890   -3.0810 hc        1 MOL      0.077541
     36 H16         7.0630   -4.5700   -2.8750 hx        1 MOL      0.078365
     37 H17         7.5420   -4.6680   -1.1420 hx        1 MOL      0.078365
     38 H18         9.2700   -5.9370   -1.6310 hn        1 MOL      0.273233
     39 H19         8.1580   -6.4680   -2.7210 hn        1 MOL      0.273233
     40 H20         9.4430   -5.4240   -3.1410 hn        1 MOL      0.273233
     41 N4          6.2530    0.4770    0.4380 n         1 MOL     -0.572171
     42 C13         5.3590    0.2900    1.5900 c3        1 MOL      0.145248
     43 C14         3.8700    0.3480    1.1120 c         1 MOL      0.587392
     44 O6          3.5390    1.0830    0.2460 o         1 MOL     -0.525140
     45 C15         5.4580    1.3620    2.6640 c3        1 MOL     -0.084717
     46 C16         5.7730    2.6800    1.9590 c         1 MOL      0.621768
     47 O7          6.9540    3.0680    1.6530 o         1 MOL     -0.709011
     48 O8          4.8480    3.4830    1.6680 o         1 MOL     -0.709011
     49 H21         5.8470    0.8870   -0.4020 hn        1 MOL      0.184073
     50 H22         5.6380   -0.6740    2.0210 h1        1 MOL      0.057852
     51 H23         6.3050    1.1990    3.3380 hc        1 MOL      0.054564
     52 H24         4.6590    1.4880    3.3930 hc        1 MOL      0.054564
     53 N5          2.9010   -0.3500    1.7100 n         1 MOL     -0.562899
     54 C17         3.1130   -1.3370    2.7920 c3        1 MOL      0.066191
     55 C18         3.4090   -2.8260    2.3080 c         1 MOL      0.595733
     56 O9          3.2610   -3.2060    1.0910 o         1 MOL     -0.629489
     57 H25         1.9520   -0.2950    1.3600 hn        1 MOL      0.380091
     58 H26         2.2800   -1.3820    3.4810 h1        1 MOL      0.039854
     59 H27         4.0330   -1.0770    3.3100 h1        1 MOL      0.039854
     60 N6          3.6510   -3.7010    3.3010 n         1 MOL     -0.339896
     61 C19         4.1180   -5.0930    2.9710 c3        1 MOL     -0.121956
     62 C20         2.9280   -5.9560    2.5010 c         1 MOL      0.474351
     63 O10         3.1670   -6.9700    1.8630 o         1 MOL     -0.529037
     64 C21         4.7330   -5.6910    4.2690 c3        1 MOL     -0.179404
     65 C22         3.8770   -5.4460    5.4400 c         1 MOL      0.795000
     66 O11         4.5880   -5.1630    6.4560 o         1 MOL     -0.705898
     67 O12         2.6530   -5.6630    5.5140 o         1 MOL     -0.705898
     68 H28         3.7410   -3.3670    4.2510 hn        1 MOL      0.219254
     69 H29         4.8290   -5.0290    2.1440 h1        1 MOL      0.096714
     70 H30         5.7210   -5.3000    4.4820 hc        1 MOL      0.064995
     71 H31         4.7680   -6.7740    4.1320 hc        1 MOL      0.064995
     72 N7          1.6530   -5.5840    2.7230 n         1 MOL     -0.127845
     73 C23         0.4760   -6.2750    2.0030 c3        1 MOL     -0.378880
     74 C24         0.2040   -5.8850    0.5480 c         1 MOL      0.691217
     75 O13        -0.4600   -6.6330   -0.1780 o         1 MOL     -0.585385
     76 H32         1.4630   -4.6810    3.1360 hn        1 MOL      0.182602
     77 H33        -0.3490   -5.9520    2.6310 h1        1 MOL      0.159540
     78 H34         0.7130   -7.3400    2.0270 h1        1 MOL      0.159540
     79 N8          0.7410   -4.7410    0.1320 n         1 MOL     -0.353618
     80 C25         0.7190   -4.2430   -1.2440 c3        1 MOL     -0.060242
     81 C26         0.2040   -2.8250   -1.2430 c         1 MOL      0.610725
     82 O14         0.3400   -2.0210   -0.2870 o         1 MOL     -0.564576
     83 C27         2.1390   -4.2910   -1.8890 c3        1 MOL      0.359852
     84 C28         2.8880   -5.7020   -1.9620 c3        1 MOL     -0.412616
     85 O15         1.9970   -3.9810   -3.2440 oh        1 MOL     -0.675537
     86 H35         1.2170   -4.1900    0.8230 hn        1 MOL      0.225612
     87 H36        -0.0290   -4.8070   -1.8020 h1        1 MOL      0.064071
     88 H37         2.7830   -3.5550   -1.4130 h1        1 MOL      0.031776
     89 H38         2.4170   -4.7210   -3.6940 ho        1 MOL      0.398836
     90 H39         2.2550   -6.3450   -2.5700 hc        1 MOL      0.108680
     91 H40         3.8120   -5.5420   -2.5240 hc        1 MOL      0.108680
     92 H41         3.1010   -6.1320   -0.9800 hc        1 MOL      0.108680
     93 N9         -0.4410   -2.3580   -2.2880 n         1 MOL     -0.353954
     94 C29        -1.0770   -1.0710   -2.3740 c3        1 MOL      0.026260
     95 C30        -2.4230   -0.9690   -1.7180 c         1 MOL      0.655401
     96 O16        -2.7260    0.0070   -1.0480 o         1 MOL     -0.552594
     97 C31        -0.9210   -0.4130   -3.7820 c3        1 MOL     -0.004117
     98 C32         0.5120   -0.1980   -4.2480 c3        1 MOL      0.161053
     99 C33        -1.6600    0.9670   -3.8700 c3        1 MOL     -0.365069
    100 C34         1.3510    0.7920   -3.4460 c3        1 MOL     -0.161589
    101 H42        -0.7100   -3.0830   -2.9340 hn        1 MOL      0.225255
    102 H43        -0.4210   -0.4200   -1.7990 h1        1 MOL      0.067545
    103 H44        -1.4210   -1.1330   -4.4310 hc        1 MOL      0.010351
    104 H45         0.5080    0.1330   -5.2800 hc        1 MOL     -0.031439
    105 H46         1.0450   -1.1530   -4.3490 hc        1 MOL     -0.031439
    106 H47        -1.6130    1.2580   -4.9210 hc        1 MOL      0.106623
    107 H48        -2.7440    0.8890   -3.7070 hc        1 MOL      0.106623
    108 H49        -1.2450    1.6230   -3.1080 hc        1 MOL      0.106623
    109 H50         1.4310    0.5350   -2.3910 hc        1 MOL      0.039825
    110 H51         2.3490    0.8130   -3.8790 hc        1 MOL      0.039825
    111 H52         0.8790    1.7760   -3.5000 hc        1 MOL      0.039825
    112 N10        -3.2550   -2.0200   -1.7950 n         1 MOL     -0.556541
    113 C35        -4.4000   -2.1520   -0.9300 c3        1 MOL     -0.015015
    114 C36        -5.6790   -2.5320   -1.7670 c         1 MOL      0.582620
    115 O17        -5.6920   -3.3640   -2.6500 o         1 MOL     -0.526420
    116 C37        -4.2910   -3.3120    0.0620 c3        1 MOL      0.415428
    117 C38        -2.9500   -3.4390    0.7520 c3        1 MOL     -0.468893
    118 O18        -5.3130   -3.1230    1.0800 oh        1 MOL     -0.672487
    119 H53        -2.9920   -2.7840   -2.4030 hn        1 MOL      0.289701
    120 H54        -4.5540   -1.2480   -0.3570 h1        1 MOL      0.115900
    121 H55        -4.5270   -4.2250   -0.4900 h1        1 MOL      0.020381
    122 H56        -4.8610   -3.1400    1.9270 ho        1 MOL      0.404709
    123 H57        -2.7770   -4.3980    1.2340 hc        1 MOL      0.118619
    124 H58        -2.1530   -3.2690    0.0240 hc        1 MOL      0.118619
    125 H59        -2.7580   -2.5750    1.3850 hc        1 MOL      0.118619
    126 N11        -6.8400   -1.9680   -1.3390 n         1 MOL     -0.489602
    127 C39        -8.1170   -2.2540   -2.0610 c3        1 MOL     -0.057926
    128 C40        -9.1560   -1.1520   -1.9490 c         1 MOL      0.597358
    129 O19        -9.7570   -0.8050   -2.9540 o         1 MOL     -0.557696
    130 C41        -8.7440   -3.5860   -1.7000 c3        1 MOL      0.352099
    131 C42        -9.8860   -4.0580   -2.5510 c3        1 MOL     -0.408234
    132 O20        -9.2030   -3.5690   -0.3410 oh        1 MOL     -0.633194
    133 H60        -6.8510   -1.3790   -0.5160 hn        1 MOL      0.256980
    134 H61        -7.8200   -2.3350   -3.1100 h1        1 MOL      0.116471
    135 H62        -7.9430   -4.3220   -1.7980 h1        1 MOL      0.040419
    136 H63        -8.5000   -3.2450    0.2320 ho        1 MOL      0.381408
    137 H64       -10.7360   -3.3840   -2.4730 hc        1 MOL      0.118025
    138 H65        -9.5470   -4.1710   -3.5770 hc        1 MOL      0.118025
    139 H66       -10.2070   -5.0240   -2.1860 hc        1 MOL      0.118025
    140 N12        -9.3480   -0.5420   -0.7620 n         1 MOL     -0.532551
    141 C43       -10.3060    0.5980   -0.6480 c3        1 MOL      0.253269
    142 C44        -9.8400    1.5640    0.4450 c         1 MOL      0.430178
    143 O21        -9.0470    1.2500    1.2690 o         1 MOL     -0.419642
    144 C45       -11.6800    0.0020   -0.3830 c3        1 MOL     -0.338983
    145 C46       -12.8650    0.9810   -0.6420 c3        1 MOL      0.202480
    146 C47       -14.1640    0.2660   -0.2230 c3        1 MOL     -0.114718
    147 C48       -15.3200    1.2480   -0.1900 c3        1 MOL      0.081778
    148 N13       -16.1630    1.0210    0.9430 n4        1 MOL     -0.170749
    149 H67        -8.8410   -0.8730    0.0540 hn        1 MOL      0.299165
    150 H68       -10.2930    1.0130   -1.6560 h1        1 MOL      0.070181
    151 H69       -11.7210   -0.3480    0.6440 hc        1 MOL      0.113482
    152 H70       -11.8820   -0.8240   -1.0630 hc        1 MOL      0.113482
    153 H71       -12.8730    1.2490   -1.6990 hc        1 MOL     -0.003226
    154 H72       -12.7710    1.8790   -0.0340 hc        1 MOL     -0.003226
    155 H73       -14.0100   -0.1070    0.7890 hc        1 MOL      0.043527
    156 H74       -14.3180   -0.5730   -0.9050 hc        1 MOL      0.043527
    157 H75       -15.9320    1.1920   -1.0830 hx        1 MOL      0.052201
    158 H76       -14.9100    2.2590   -0.1650 hx        1 MOL      0.052201
    159 H77       -16.9010    1.6980    1.0790 hn        1 MOL      0.229366
    160 H78       -16.6590    0.1490    0.8010 hn        1 MOL      0.229366
    161 H79       -15.6620    1.0080    1.8210 hn        1 MOL      0.229366
    162 N14       -10.2410    2.8990    0.3230 n         1 MOL     -0.607300
    163 C49        -9.8810    3.9030    1.3580 c3        1 MOL      0.543358
    164 C50        -8.3510    3.9750    1.5920 c         1 MOL      0.081116
    165 O22        -7.8140    3.7760    2.7170 o         1 MOL     -0.471995
    166 C51       -10.4130    5.2600    1.0660 c3        1 MOL     -0.253177
    167 C52       -10.1420    6.2440    2.1840 c3        1 MOL     -0.274273
    168 C53       -11.0280    7.5070    2.1860 c         1 MOL      0.740938
    169 O23       -11.3420    7.9910    3.2780 o         1 MOL     -0.669146
    170 O24       -11.3380    8.0690    1.1080 o         1 MOL     -0.669146
    171 H80       -11.0510    3.1030   -0.2490 hn        1 MOL      0.208110
    172 H81       -10.3660    3.6760    2.3040 h1        1 MOL     -0.015353
    173 H82       -11.4830    5.1240    0.9350 hc        1 MOL      0.074743
    174 H83        -9.9690    5.6340    0.1430 hc        1 MOL      0.074743
    175 H84        -9.1070    6.5820    2.1010 hc        1 MOL      0.098128
    176 H85       -10.3220    5.6340    3.0730 hc        1 MOL      0.098128
    177 N15        -7.4580    4.1100    0.5380 n         1 MOL     -0.139186
    178 C54        -7.7450    4.5100   -0.8270 c3        1 MOL     -0.035816
    179 H86        -8.8230    4.6130   -0.9560 h1        1 MOL      0.039936
    180 H87        -7.2620    5.4640   -1.0350 h1        1 MOL      0.039936
    181 H88        -7.3680    3.7530   -1.5150 h1        1 MOL      0.039936
    182 H89        -6.5080    4.1570    0.8900 hn        1 MOL      0.250067
    183 Ca1         6.4410    4.9060   -0.0180 Ca        1 MOL      1.748464
    184 O25         4.0640    6.0890    0.2800 oh        1 MOL     -0.859167
    185 H90         3.7450    6.9720    0.0990 ho        1 MOL      0.429772
    186 H91         3.4080    5.7180    0.8690 ho        1 MOL      0.429772
    187 O26         6.2060    6.4600    2.2320 oh        1 MOL     -0.859167
    188 H92         6.0980    5.9590    3.0480 ho        1 MOL      0.429772
    189 H93         6.6070    7.2860    2.5110 ho        1 MOL      0.429772
    190 O27         4.8660    3.1920   -1.3820 oh        1 MOL     -0.859167
    191 H94         5.1270    2.5960   -2.0880 ho        1 MOL      0.429772
    192 H95         4.3100    2.6650   -0.8170 ho        1 MOL      0.429772
@<TRIPOS>BOND
     1    1    2 1   
     2    1    4 1   
     3    1    5 1   
     4    1    6 1   
     5    2    3 2   
     6    2    7 1   
     7    7    8 1   
     8    7   15 1   
     9    8    9 1   
    10    8   11 1   
    11    8   16 1   
    12    9   10 2   
    13    9   19 1   
    14   11   12 1   
    15   11   17 1   
    16   11   18 1   
    17   12   13 1   
    18   12   14 1   
    19   19   20 1   
    20   19   28 1   
    21   20   21 1   
    22   20   23 1   
    23   20   29 1   
    24   21   22 2   
    25   21   41 1   
    26   23   24 1   
    27   23   30 1   
    28   23   31 1   
    29   24   25 1   
    30   24   32 1   
    31   24   33 1   
    32   25   26 1   
    33   25   34 1   
    34   25   35 1   
    35   26   27 1   
    36   26   36 1   
    37   26   37 1   
    38   27   38 1   
    39   27   39 1   
    40   27   40 1   
    41   41   42 1   
    42   41   49 1   
    43   42   43 1   
    44   42   45 1   
    45   42   50 1   
    46   43   44 2   
    47   43   53 1   
    48   45   46 1   
    49   45   51 1   
    50   45   52 1   
    51   46   47 1   
    52   46   48 1   
    53   53   54 1   
    54   53   57 1   
    55   54   55 1   
    56   54   58 1   
    57   54   59 1   
    58   55   56 2   
    59   55   60 1   
    60   60   61 1   
    61   60   68 1   
    62   61   62 1   
    63   61   64 1   
    64   61   69 1   
    65   62   63 2   
    66   62   72 1   
    67   64   65 1   
    68   64   70 1   
    69   64   71 1   
    70   65   66 1   
    71   65   67 1   
    72   72   73 1   
    73   72   76 1   
    74   73   74 1   
    75   73   77 1   
    76   73   78 1   
    77   74   75 2   
    78   74   79 1   
    79   79   80 1   
    80   79   86 1   
    81   80   81 1   
    82   80   83 1   
    83   80   87 1   
    84   81   82 2   
    85   81   93 1   
    86   83   84 1   
    87   83   85 1   
    88   83   88 1   
    89   84   90 1   
    90   84   91 1   
    91   84   92 1   
    92   85   89 1   
    93   93   94 1   
    94   93  101 1   
    95   94   95 1   
    96   94   97 1   
    97   94  102 1   
    98   95   96 2   
    99   95  112 1   
   100   97   98 1   
   101   97   99 1   
   102   97  103 1   
   103   98  100 1   
   104   98  104 1   
   105   98  105 1   
   106   99  106 1   
   107   99  107 1   
   108   99  108 1   
   109  100  109 1   
   110  100  110 1   
   111  100  111 1   
   112  112  113 1   
   113  112  119 1   
   114  113  114 1   
   115  113  116 1   
   116  113  120 1   
   117  114  115 2   
   118  114  126 1   
   119  116  117 1   
   120  116  118 1   
   121  116  121 1   
   122  117  123 1   
   123  117  124 1   
   124  117  125 1   
   125  118  122 1   
   126  126  127 1   
   127  126  133 1   
   128  127  128 1   
   129  127  130 1   
   130  127  134 1   
   131  128  129 2   
   132  128  140 1   
   133  130  131 1   
   134  130  132 1   
   135  130  135 1   
   136  131  137 1   
   137  131  138 1   
   138  131  139 1   
   139  132  136 1   
   140  140  141 1   
   141  140  149 1   
   142  141  142 1   
   143  141  144 1   
   144  141  150 1   
   145  142  143 2   
   146  142  162 1   
   147  144  145 1   
   148  144  151 1   
   149  144  152 1   
   150  145  146 1   
   151  145  153 1   
   152  145  154 1   
   153  146  147 1   
   154  146  155 1   
   155  146  156 1   
   156  147  148 1   
   157  147  157 1   
   158  147  158 1   
   159  148  159 1   
   160  148  160 1   
   161  148  161 1   
   162  162  163 1   
   163  162  171 1   
   164  163  164 1   
   165  163  166 1   
   166  163  172 1   
   167  164  165 2   
   168  164  177 1   
   169  166  167 1   
   170  166  173 1   
   171  166  174 1   
   172  167  168 1   
   173  167  175 1   
   174  167  176 1   
   175  168  169 1   
   176  168  170 1   
   177  177  178 1   
   178  177  182 1   
   179  178  179 1   
   180  178  180 1   
   181  178  181 1   
   182  184  185 1   
   183  184  186 1   
   184  187  188 1   
   185  187  189 1   
   186  190  191 1   
   187  190  192 1   
@<TRIPOS>SUBSTRUCTURE
     1 MOL         1 TEMP              0 ****  ****    0 ROOT
