@<TRIPOS>MOLECULE
MOL
  182   178     1     0     0
SMALL
resp


@<TRIPOS>ATOM
      1 C1          2.1570   -4.9150    6.1050 c3        1 MOL     -0.366138
      2 C2          2.1860   -4.6790    4.5760 c         1 MOL      0.760239
      3 O1          1.7280   -5.4590    3.7300 o         1 MOL     -0.610037
      4 H1          3.1530   -5.1930    6.4490 hc        1 MOL      0.094441
      5 H2          1.8410   -4.0000    6.6090 hc        1 MOL      0.094441
      6 H3          1.4570   -5.7180    6.3360 hc        1 MOL      0.094441
      7 N1          2.7990   -3.5540    4.2410 n         1 MOL     -0.627562
      8 C3          2.7880   -3.0060    2.8550 c3        1 MOL      0.010015
      9 C4          3.2080   -3.9560    1.7430 c         1 MOL      0.633061
     10 O2          4.3400   -4.2980    1.7260 o         1 MOL     -0.551752
     11 C5          3.5990   -1.7270    2.8160 c3        1 MOL     -0.033235
     12 C6          3.4540   -0.9980    1.5020 c         1 MOL      0.436369
     13 O3          3.8400    0.1590    1.5050 o         1 MOL     -0.666385
     14 O4          2.9780   -1.4280    0.4560 o         1 MOL     -0.666385
     15 H4          3.1970   -3.0290    5.0110 hn        1 MOL      0.328349
     16 H5          1.7680   -2.6900    2.5980 h1        1 MOL      0.005998
     17 H6          4.6390   -1.9010    3.0530 hc        1 MOL      0.056379
     18 H7          3.2500   -1.0280    3.5730 hc        1 MOL      0.056379
     19 N2          2.3970   -4.2300    0.6730 n         1 MOL     -0.071549
     20 C7          2.7570   -5.2240   -0.3430 c3        1 MOL     -0.086599
     21 C8          4.0130   -4.8770   -1.1280 c         1 MOL      0.586537
     22 O5          4.5700   -5.8400   -1.6800 o         1 MOL     -0.605456
     23 C9          1.4920   -5.4620   -1.1260 c3        1 MOL     -0.106247
     24 C10         1.5320   -6.8360   -1.7890 c3        1 MOL      0.280901
     25 C11         0.2730   -7.0630   -2.6990 c3        1 MOL     -0.044414
     26 C12         0.3090   -8.4820   -3.1980 c3        1 MOL     -0.028852
     27 N3          0.4490   -9.5170   -2.1160 n4        1 MOL     -0.213276
     28 H8          1.4530   -3.8740    0.6540 hn        1 MOL     -0.002762
     29 H9          3.0970   -6.1140    0.1920 h1        1 MOL      0.052163
     30 H10         1.3240   -4.7930   -1.9710 hc        1 MOL      0.029293
     31 H11         0.6200   -5.4250   -0.4640 hc        1 MOL      0.029293
     32 H12         1.5170   -7.5480   -0.9650 hc        1 MOL     -0.045022
     33 H13         2.4340   -7.0080   -2.3870 hc        1 MOL     -0.045022
     34 H14         0.2870   -6.3660   -3.5360 hc        1 MOL      0.033544
     35 H15        -0.6310   -6.9550   -2.0920 hc        1 MOL      0.033544
     36 H16         1.1900   -8.5580   -3.8360 hx        1 MOL      0.086891
     37 H17        -0.5570   -8.7450   -3.8130 hx        1 MOL      0.086891
     38 H18         0.0560   -9.1650   -1.2550 hn        1 MOL      0.248397
     39 H19         0.0940  -10.4430   -2.3180 hn        1 MOL      0.248397
     40 H20         1.4380   -9.6170   -1.9640 hn        1 MOL      0.248397
     41 N4          4.3720   -3.6370   -1.2660 n         1 MOL     -0.385488
     42 C13         5.5960   -3.1490   -1.9900 c3        1 MOL      0.057016
     43 C14         6.6450   -2.3450   -1.2050 c         1 MOL      0.326291
     44 O6          7.6480   -1.9030   -1.6840 o         1 MOL     -0.467582
     45 C15         5.1450   -2.2780   -3.1700 c3        1 MOL     -0.238415
     46 C16         4.2500   -1.1320   -2.6850 c         1 MOL      0.858327
     47 O7          4.7400   -0.1770   -2.0810 o         1 MOL     -0.798508
     48 O8          3.0110   -1.1710   -2.9410 o         1 MOL     -0.798508
     49 H21         3.7420   -2.9760   -0.8260 hn        1 MOL      0.229304
     50 H22         6.0710   -4.0180   -2.4560 h1        1 MOL      0.126004
     51 H23         4.5290   -2.9100   -3.8210 hc        1 MOL      0.071225
     52 H24         5.9910   -1.9700   -3.7830 hc        1 MOL      0.071225
     53 N5          6.2730   -2.1160    0.0840 n         1 MOL      0.005957
     54 C17         7.3490   -1.6180    0.9370 c3        1 MOL     -0.158218
     55 C18         7.6520   -0.1430    0.6500 c         1 MOL      0.514195
     56 O9          8.7680    0.3200    0.9850 o         1 MOL     -0.558221
     57 H25         5.4020   -2.4500    0.4520 hn        1 MOL      0.053113
     58 H26         8.2470   -2.2030    0.7210 h1        1 MOL      0.104849
     59 H27         7.1390   -1.7710    1.9960 h1        1 MOL      0.104849
     60 N6          6.8200    0.6790   -0.0080 n         1 MOL     -0.302778
     61 C19         7.1290    2.1620   -0.2170 c3        1 MOL     -0.021908
     62 C20         5.8390    3.0280   -0.4070 c         1 MOL      0.415673
     63 O10         4.7490    2.4640   -0.6570 o         1 MOL     -0.489849
     64 C21         8.1870    2.3330   -1.3600 c3        1 MOL     -0.306776
     65 C22         7.4900    2.5820   -2.6500 c         1 MOL      0.576139
     66 N7          6.5840    1.7530   -3.1220 n         1 MOL     -0.601490
     67 O11         7.7740    3.4990   -3.4120 o         1 MOL     -0.594756
     68 H28         5.9450    0.3030   -0.3590 hn        1 MOL      0.258131
     69 H29         7.7080    2.4730    0.6530 h1        1 MOL      0.111127
     70 H30         8.7760    1.4270   -1.5270 hc        1 MOL      0.142732
     71 H31         8.7580    3.2290   -1.1220 hc        1 MOL      0.142732
     72 H32         6.3190    0.9140   -2.6170 hn        1 MOL      0.308566
     73 H33         6.2470    1.8920   -4.0650 hn        1 MOL      0.308566
     74 N8          5.8570    4.3850   -0.3400 n         1 MOL     -0.297745
     75 C23         4.7900    5.2690   -0.7320 c3        1 MOL     -0.270143
     76 C24         3.6150    5.1460    0.2590 c         1 MOL      0.670227
     77 O12         3.8580    5.0530    1.4380 o         1 MOL     -0.525273
     78 H34         6.6790    4.8420    0.0490 hn        1 MOL      0.299541
     79 H35         4.4810    4.9720   -1.7320 h1        1 MOL      0.137667
     80 H36         5.1230    6.3010   -0.7090 h1        1 MOL      0.137667
     81 N9          2.3760    5.2820   -0.1640 n         1 MOL     -0.632232
     82 C25         1.2980    4.9260    0.7980 c3        1 MOL      0.242496
     83 C26         1.3410    3.4540    1.2320 c         1 MOL      0.518358
     84 O13         2.0900    2.6460    0.7010 o         1 MOL     -0.524624
     85 C27        -0.0150    5.2400    0.0700 c3        1 MOL     -0.149982
     86 C28        -0.2670    6.6610   -0.2880 ca        1 MOL      0.012488
     87 C29        -0.1380    7.6240    0.7080 ca        1 MOL     -0.087404
     88 C30        -0.5600    7.0480   -1.5780 ca        1 MOL     -0.087404
     89 C31        -0.2500    8.9930    0.4300 ca        1 MOL     -0.335530
     90 C32        -0.6470    8.4230   -1.9350 ca        1 MOL     -0.335530
     91 C33        -0.5560    9.3800   -0.9010 ca        1 MOL      0.415173
     92 O14        -0.8590   10.6860   -1.0630 oh        1 MOL     -0.491066
     93 H37         2.2410    5.3220   -1.1700 hn        1 MOL      0.324853
     94 H38         1.4180    5.5360    1.6830 h1        1 MOL      0.042251
     95 H39        -0.8630    4.8520    0.6360 hc        1 MOL      0.041315
     96 H40        -0.0120    4.6370   -0.8360 hc        1 MOL      0.041315
     97 H41        -0.0190    7.3190    1.7440 ha        1 MOL      0.111575
     98 H42        -0.7300    6.3090   -2.3390 ha        1 MOL      0.111575
     99 H43        -0.4270    9.6640    1.2560 ha        1 MOL      0.178741
    100 H44        -0.9310    8.6780   -2.9460 ha        1 MOL      0.178741
    101 H45        -0.6450   11.1770   -0.2670 ho        1 MOL      0.369689
    102 N10         0.5050    3.1410    2.1660 n         1 MOL     -0.494421
    103 C34         0.1240    1.8390    2.7720 c3        1 MOL      0.147905
    104 C35        -0.2370    0.7370    1.7440 c         1 MOL      0.209851
    105 O15         0.6240    0.3300    0.9740 o         1 MOL     -0.316155
    106 C36         1.1810    1.3530    3.8360 c3        1 MOL      0.307586
    107 C37         0.6800    0.1150    4.6500 c3        1 MOL     -0.107670
    108 C38         1.7890    2.4080    4.7700 c3        1 MOL     -0.410357
    109 C39        -0.5660    0.2880    5.5590 c3        1 MOL     -0.221210
    110 H46        -0.1330    3.8650    2.4390 hn        1 MOL      0.274546
    111 H47        -0.7900    1.9220    3.3630 h1        1 MOL      0.016093
    112 H48         2.0810    1.0730    3.2910 hc        1 MOL      0.050697
    113 H49         1.5280   -0.2370    5.2380 hc        1 MOL      0.055678
    114 H50         0.3890   -0.6680    3.9470 hc        1 MOL      0.055678
    115 H51         2.5410    1.8780    5.3500 hc        1 MOL      0.096323
    116 H52         2.2940    3.1400    4.1320 hc        1 MOL      0.096323
    117 H53         1.0350    2.9300    5.3520 hc        1 MOL      0.096323
    118 H54        -0.6350   -0.6770    6.0730 hc        1 MOL      0.060541
    119 H55        -0.5050    1.1120    6.2730 hc        1 MOL      0.060541
    120 H56        -1.5100    0.3690    5.0320 hc        1 MOL      0.060541
    121 N11        -1.4340    0.1710    1.7110 n         1 MOL     -0.269929
    122 C40        -1.9470   -0.9030    0.8720 c3        1 MOL     -0.179682
    123 C41        -3.4790   -1.1080    1.0210 c         1 MOL      0.688590
    124 O16        -4.0760   -1.8420    1.8580 o         1 MOL     -0.538346
    125 C42        -1.3590   -2.2790    1.1900 c3        1 MOL      0.035353
    126 O17        -0.0250   -2.3870    0.9670 oh        1 MOL     -0.090844
    127 H57        -2.1790    0.5070    2.3240 hn        1 MOL      0.248633
    128 H58        -1.6800   -0.5880   -0.1320 h1        1 MOL      0.165741
    129 H59        -1.8810   -3.0440    0.6240 h1        1 MOL      0.038799
    130 H60        -1.5210   -2.5480    2.2350 h1        1 MOL      0.038799
    131 H61         0.1480   -1.6060    0.4310 ho        1 MOL      0.071895
    132 N12        -4.1790   -0.5510    0.0330 n         1 MOL     -0.714979
    133 C43        -5.6330   -0.6330   -0.4160 c3        1 MOL      0.455173
    134 C44        -5.7660   -0.8960   -1.8870 c         1 MOL      0.515959
    135 O18        -4.8110   -0.7580   -2.6250 o         1 MOL     -0.569452
    136 C45        -6.3320    0.6440   -0.1290 c3        1 MOL     -0.231207
    137 H62        -3.5840    0.0930   -0.4670 hn        1 MOL      0.281246
    138 H63        -6.0700   -1.4630    0.1290 h1        1 MOL      0.018074
    139 H64        -7.3670    0.5260   -0.4270 hc        1 MOL      0.061723
    140 H65        -6.2210    0.8100    0.9410 hc        1 MOL      0.061723
    141 H66        -5.8710    1.4300   -0.7320 hc        1 MOL      0.061723
    142 N13        -6.9160   -1.3760   -2.3910 n         1 MOL     -0.567646
    143 C46        -8.1590   -1.5970   -1.7090 c3        1 MOL      0.235379
    144 C47        -9.3980   -0.8820   -2.3690 c         1 MOL      0.435926
    145 O19        -9.3510   -0.3740   -3.4890 o         1 MOL     -0.522674
    146 C48        -8.3310   -3.1740   -1.9510 c3        1 MOL     -0.333053
    147 H67        -6.7430   -1.8320   -3.2790 hn        1 MOL      0.341744
    148 H68        -8.1110   -1.3700   -0.6510 h1        1 MOL      0.034213
    149 H69        -8.3770   -3.4860   -2.9920 hc        1 MOL      0.098915
    150 H70        -7.5320   -3.8320   -1.6040 hc        1 MOL      0.098915
    151 H71        -9.2950   -3.4470   -1.5200 hc        1 MOL      0.098915
    152 N14       -10.5430   -0.6930   -1.6740 n         1 MOL     -0.426713
    153 C49       -10.7020   -0.8820   -0.1500 c3        1 MOL     -0.126982
    154 C50       -10.0800    0.2480    0.6620 c         1 MOL      0.588433
    155 O20        -9.5180    0.1650    1.7240 o         1 MOL     -0.530614
    156 C51       -12.1460   -1.0630    0.2810 c3        1 MOL     -0.034643
    157 C52       -12.9990    0.2140    0.2390 c3        1 MOL     -0.096264
    158 C53       -14.5110    0.1320    0.2720 c         1 MOL      0.635968
    159 O21       -15.0620    0.6140    1.2910 o         1 MOL     -0.659762
    160 O22       -15.0600   -0.5020   -0.6850 o         1 MOL     -0.659762
    161 H72       -11.2700   -0.2280   -2.2040 hn        1 MOL      0.326719
    162 H73       -10.1620   -1.7550    0.2450 h1        1 MOL      0.052640
    163 H74       -12.1820   -1.3490    1.3300 hc        1 MOL      0.062039
    164 H75       -12.7050   -1.8300   -0.2640 hc        1 MOL      0.062039
    165 H76       -12.7250    0.7600   -0.6720 hc        1 MOL      0.008475
    166 H77       -12.7050    0.8330    1.0810 hc        1 MOL      0.008475
    167 N15       -10.1560    1.4800    0.0040 n         1 MOL     -0.284681
    168 C54        -9.6540    2.6480    0.6750 c3        1 MOL     -0.374636
    169 H78        -9.9670    2.6290    1.7190 h1        1 MOL      0.141338
    170 H79        -8.5650    2.6570    0.6220 h1        1 MOL      0.141338
    171 H80       -10.0490    3.5420    0.1940 h1        1 MOL      0.141338
    172 H81       -10.5670    1.5020   -0.9260 hn        1 MOL      0.265431
    173 Ca1         2.6800    0.7570   -0.9680 Ca        1 MOL      1.791271
    174 O23         0.5590   -1.2730   -1.5800 oh        1 MOL     -0.887388
    175 H82        -0.1600   -1.7190   -2.0220 ho        1 MOL      0.433058
    176 H83         1.3400   -1.5650   -2.0570 ho        1 MOL      0.433058
    177 O24         2.9470    1.7330   -3.4750 oh        1 MOL     -0.887388
    178 H84         3.2350    1.0840   -4.1060 ho        1 MOL      0.433058
    179 H85         2.9900    2.5670   -3.9520 ho        1 MOL      0.433058
    180 O25         0.3190    1.9180   -1.4900 oh        1 MOL     -0.887388
    181 H86         0.1740    2.3930   -2.3100 ho        1 MOL      0.433058
    182 H87        -0.5660    1.6730   -1.1980 ho        1 MOL      0.433058
@<TRIPOS>BOND
     1    1    2 1   
     2    1    4 1   
     3    1    5 1   
     4    1    6 1   
     5    2    3 2   
     6    2    7 1   
     7    7    8 1   
     8    7   15 1   
     9    8    9 1   
    10    8   11 1   
    11    8   16 1   
    12    9   10 2   
    13    9   19 1   
    14   11   12 1   
    15   11   17 1   
    16   11   18 1   
    17   12   13 1   
    18   12   14 1   
    19   19   20 1   
    20   19   28 1   
    21   20   21 1   
    22   20   23 1   
    23   20   29 1   
    24   21   22 2   
    25   21   41 1   
    26   23   24 1   
    27   23   30 1   
    28   23   31 1   
    29   24   25 1   
    30   24   32 1   
    31   24   33 1   
    32   25   26 1   
    33   25   34 1   
    34   25   35 1   
    35   26   27 1   
    36   26   36 1   
    37   26   37 1   
    38   27   38 1   
    39   27   39 1   
    40   27   40 1   
    41   41   42 1   
    42   41   49 1   
    43   42   43 1   
    44   42   45 1   
    45   42   50 1   
    46   43   44 2   
    47   43   53 1   
    48   45   46 1   
    49   45   51 1   
    50   45   52 1   
    51   46   47 1   
    52   46   48 1   
    53   53   54 1   
    54   53   57 1   
    55   54   55 1   
    56   54   58 1   
    57   54   59 1   
    58   55   56 2   
    59   55   60 1   
    60   60   61 1   
    61   60   68 1   
    62   61   62 1   
    63   61   64 1   
    64   61   69 1   
    65   62   63 2   
    66   62   74 1   
    67   64   65 1   
    68   64   70 1   
    69   64   71 1   
    70   65   66 1   
    71   65   67 2   
    72   66   72 1   
    73   66   73 1   
    74   74   75 1   
    75   74   78 1   
    76   75   76 1   
    77   75   79 1   
    78   75   80 1   
    79   76   77 2   
    80   76   81 1   
    81   81   82 1   
    82   81   93 1   
    83   82   83 1   
    84   82   85 1   
    85   82   94 1   
    86   83   84 2   
    87   83  102 1   
    88   85   86 1   
    89   85   95 1   
    90   85   96 1   
    91   86   87 ar  
    92   86   88 ar  
    93   87   89 ar  
    94   87   97 1   
    95   88   90 ar  
    96   88   98 1   
    97   89   91 ar  
    98   89   99 1   
    99   90   91 ar  
   100   90  100 1   
   101   91   92 1   
   102   92  101 1   
   103  102  103 1   
   104  102  110 1   
   105  103  104 1   
   106  103  106 1   
   107  103  111 1   
   108  104  105 2   
   109  104  121 1   
   110  106  107 1   
   111  106  108 1   
   112  106  112 1   
   113  107  109 1   
   114  107  113 1   
   115  107  114 1   
   116  108  115 1   
   117  108  116 1   
   118  108  117 1   
   119  109  118 1   
   120  109  119 1   
   121  109  120 1   
   122  121  122 1   
   123  121  127 1   
   124  122  123 1   
   125  122  125 1   
   126  122  128 1   
   127  123  124 2   
   128  123  132 1   
   129  125  126 1   
   130  125  129 1   
   131  125  130 1   
   132  126  131 1   
   133  132  133 1   
   134  132  137 1   
   135  133  134 1   
   136  133  136 1   
   137  133  138 1   
   138  134  135 2   
   139  134  142 1   
   140  136  139 1   
   141  136  140 1   
   142  136  141 1   
   143  142  143 1   
   144  142  147 1   
   145  143  144 1   
   146  143  146 1   
   147  143  148 1   
   148  144  145 2   
   149  144  152 1   
   150  146  149 1   
   151  146  150 1   
   152  146  151 1   
   153  152  153 1   
   154  152  161 1   
   155  153  154 1   
   156  153  156 1   
   157  153  162 1   
   158  154  155 2   
   159  154  167 1   
   160  156  157 1   
   161  156  163 1   
   162  156  164 1   
   163  157  158 1   
   164  157  165 1   
   165  157  166 1   
   166  158  159 1   
   167  158  160 1   
   168  167  168 1   
   169  167  172 1   
   170  168  169 1   
   171  168  170 1   
   172  168  171 1   
   173  174  175 1   
   174  174  176 1   
   175  177  178 1   
   176  177  179 1   
   177  180  181 1   
   178  180  182 1   
@<TRIPOS>SUBSTRUCTURE
     1 MOL         1 TEMP              0 ****  ****    0 ROOT
