@<TRIPOS>MOLECULE
MOL
  178   175     1     0     0
SMALL
resp


@<TRIPOS>ATOM
      1 C1          0.1200    6.5480   -1.6380 c3        1 MOL     -0.400157
      2 C2          1.5240    6.3150   -0.9790 c         1 MOL      0.682316
      3 O1          1.6460    6.6580    0.1970 o         1 MOL     -0.576296
      4 H1         -0.6440    6.0290   -1.0580 hc        1 MOL      0.096938
      5 H2         -0.1010    7.6150   -1.6570 hc        1 MOL      0.096938
      6 H3          0.1270    6.1600   -2.6570 hc        1 MOL      0.096938
      7 N1          2.4610    5.6370   -1.6830 n         1 MOL     -0.563622
      8 C3          3.8700    5.6200   -1.2900 c3        1 MOL      0.098907
      9 C4          4.1340    4.5450   -0.2180 c         1 MOL      0.625679
     10 O2          4.0150    3.3720   -0.5140 o         1 MOL     -0.509361
     11 C5          4.6800    5.3660   -2.5100 c3        1 MOL     -0.131269
     12 C6          6.1630    5.6100   -2.2950 c         1 MOL      0.685174
     13 O3          6.5720    6.6520   -1.7640 o         1 MOL     -0.721961
     14 O4          6.9030    4.7000   -2.8270 o         1 MOL     -0.721961
     15 H4          2.1560    5.1820   -2.5310 hn        1 MOL      0.314187
     16 H5          4.2120    6.5770   -0.9090 h1        1 MOL      0.045736
     17 H6          4.2970    6.1530   -3.1680 hc        1 MOL      0.001283
     18 H7          4.4650    4.3970   -2.9500 hc        1 MOL      0.001283
     19 N2          4.5830    4.9590    1.0330 n         1 MOL     -0.664697
     20 C7          4.7790    4.0560    2.1050 c3        1 MOL      0.472337
     21 C8          3.4450    3.3580    2.5280 c         1 MOL      0.432977
     22 O5          2.4370    4.0150    2.5680 o         1 MOL     -0.504492
     23 C9          5.5280    4.7360    3.2380 c3        1 MOL     -0.313257
     24 H8          4.7610    5.9410    1.1340 hn        1 MOL      0.322524
     25 H9          5.4330    3.2780    1.6950 h1        1 MOL     -0.017555
     26 H10         6.2050    5.5340    2.9490 hc        1 MOL      0.075449
     27 H11         4.8480    5.2530    3.9240 hc        1 MOL      0.075449
     28 H12         6.1740    4.0750    3.8130 hc        1 MOL      0.075449
     29 N3          3.4310    2.0650    3.0220 n         1 MOL     -0.356770
     30 C10         4.5420    1.1110    3.2150 c3        1 MOL     -0.160601
     31 C11         4.7530    0.1790    1.9930 c         1 MOL      0.466920
     32 O6          3.7980   -0.1780    1.3010 o         1 MOL     -0.566644
     33 C12         4.3630    0.2400    4.4410 c3        1 MOL     -0.045984
     34 C13         3.0950   -0.6580    4.4200 c         1 MOL      0.682499
     35 O7          2.1490   -0.4030    3.6170 o         1 MOL     -0.681604
     36 O8          3.0440   -1.6150    5.2020 o         1 MOL     -0.681604
     37 H13         2.5050    1.7770    3.3170 hn        1 MOL      0.261288
     38 H14         5.4390    1.7220    3.2510 h1        1 MOL      0.069105
     39 H15         4.3080    0.8400    5.3450 hc        1 MOL      0.012943
     40 H16         5.2340   -0.4070    4.5090 hc        1 MOL      0.012943
     41 N4          6.0020   -0.2820    1.8110 n         1 MOL     -0.315140
     42 C14         6.3580   -1.2590    0.7510 c3        1 MOL      0.004682
     43 C15         6.9380   -0.6400   -0.5040 c         1 MOL      0.617943
     44 O9          6.9190    0.5550   -0.6520 o         1 MOL     -0.519083
     45 H17         6.7240    0.1410    2.3700 hn        1 MOL      0.283383
     46 H18         5.5190   -1.8760    0.4390 h1        1 MOL      0.016597
     47 H19         7.1490   -1.8780    1.1800 h1        1 MOL      0.016597
     48 N5          7.4050   -1.3840   -1.4780 n         1 MOL     -0.543978
     49 C16         7.5870   -2.8820   -1.5150 c3        1 MOL      0.123868
     50 C17         6.5610   -3.7720   -2.3550 c         1 MOL      0.387856
     51 O10         6.9400   -4.8840   -2.7420 o         1 MOL     -0.476219
     52 C18         9.0740   -3.1270   -1.8840 c3        1 MOL     -0.103769
     53 C19        10.1170   -2.4240   -1.0200 c         1 MOL      0.605463
     54 N6         11.4030   -2.4810   -1.3520 n         1 MOL     -0.750569
     55 O11         9.8740   -1.5750   -0.1050 o         1 MOL     -0.505751
     56 H20         7.7060   -0.8950   -2.3170 hn        1 MOL      0.314076
     57 H21         7.6030   -3.1790   -0.4660 h1        1 MOL      0.054570
     58 H22         9.2380   -2.8480   -2.9290 hc        1 MOL      0.039624
     59 H23         9.2470   -4.1950   -1.7520 hc        1 MOL      0.039624
     60 H24        11.7500   -3.0650   -2.0930 hn        1 MOL      0.345808
     61 H25        12.1040   -1.9980   -0.8030 hn        1 MOL      0.345808
     62 N7          5.3960   -3.1910   -2.8040 n         1 MOL     -0.243167
     63 C20         4.3440   -3.8160   -3.6360 c3        1 MOL     -0.134476
     64 C21         3.1900   -4.4960   -2.8420 c         1 MOL      0.644610
     65 O12         2.7080   -5.5180   -3.2180 o         1 MOL     -0.553993
     66 H26         5.1940   -2.2140   -2.6180 hn        1 MOL      0.216113
     67 H27         4.8860   -4.6020   -4.1640 h1        1 MOL      0.089746
     68 H28         4.0190   -3.2070   -4.4840 h1        1 MOL      0.089746
     69 N8          2.8180   -3.8390   -1.7650 n         1 MOL     -0.504847
     70 C22         1.8750   -4.4840   -0.7570 c3        1 MOL      0.028271
     71 C23         0.5970   -3.5880   -0.5400 c         1 MOL      0.624150
     72 O13         0.7220   -2.3490   -0.6230 o         1 MOL     -0.605172
     73 C24         2.6260   -4.6640    0.5980 c3        1 MOL      0.291951
     74 C25         3.7870   -5.6420    0.3460 c3        1 MOL     -0.461548
     75 O14         3.0320   -3.4540    1.1280 oh        1 MOL     -0.704626
     76 H29         3.4040   -3.0540   -1.5060 hn        1 MOL      0.321286
     77 H30         1.5840   -5.4800   -1.0880 h1        1 MOL      0.082483
     78 H31         2.0330   -5.1150    1.3980 h1        1 MOL      0.034090
     79 H32         3.5390   -3.6250    1.9280 ho        1 MOL      0.474746
     80 H33         4.1140   -5.9230    1.3460 hc        1 MOL      0.122201
     81 H34         3.4920   -6.4900   -0.2760 hc        1 MOL      0.122201
     82 H35         4.5650   -5.0750   -0.1660 hc        1 MOL      0.122201
     83 N9         -0.6230   -4.1880   -0.2380 n         1 MOL     -0.548643
     84 C26        -1.8540   -3.4090   -0.2710 c3        1 MOL      0.283242
     85 C27        -2.4420   -3.2110    1.1110 c         1 MOL      0.102171
     86 O15        -2.5590   -4.1270    1.8980 o         1 MOL     -0.520593
     87 C28        -2.8830   -3.8570   -1.4460 c3        1 MOL      0.094908
     88 C29        -4.1190   -2.9640   -1.3930 c3        1 MOL      0.087517
     89 C30        -2.1470   -3.7760   -2.7530 c3        1 MOL     -0.229537
     90 C31        -5.1050   -3.3130   -2.4460 c3        1 MOL     -0.241807
     91 H36        -0.6610   -5.1940   -0.1060 hn        1 MOL      0.277466
     92 H37        -1.4940   -2.4260   -0.5920 h1        1 MOL      0.039244
     93 H38        -3.2860   -4.8590   -1.2930 hc        1 MOL     -0.008176
     94 H39        -3.9570   -1.8950   -1.5730 hc        1 MOL      0.021385
     95 H40        -4.6370   -3.0500   -0.4290 hc        1 MOL      0.021385
     96 H41        -1.1980   -4.3000   -2.7780 hc        1 MOL      0.051470
     97 H42        -2.7070   -4.0280   -3.6500 hc        1 MOL      0.051470
     98 H43        -1.8850   -2.7180   -2.8420 hc        1 MOL      0.051470
     99 H44        -6.0570   -2.8430   -2.1780 hc        1 MOL      0.036045
    100 H45        -4.6920   -3.0080   -3.4120 hc        1 MOL      0.036045
    101 H46        -5.2350   -4.3910   -2.4790 hc        1 MOL      0.036045
    102 N10        -3.0000   -2.0550    1.3640 n         1 MOL      0.188831
    103 C32        -3.7930   -1.8530    2.6570 c3        1 MOL     -0.008166
    104 C33        -5.3170   -1.6300    2.3480 c         1 MOL      0.309675
    105 O16        -6.1730   -2.1550    3.1140 o         1 MOL     -0.515294
    106 C34        -3.1790   -0.7270    3.5420 c3        1 MOL     -0.120353
    107 C35        -1.6570   -0.7310    3.5770 c         1 MOL      0.768810
    108 O17        -0.9960    0.1670    3.0290 o         1 MOL     -0.710014
    109 O18        -1.1820   -1.5970    4.2730 o         1 MOL     -0.710014
    110 H47        -2.5910   -1.3050    0.8350 hn        1 MOL     -0.077871
    111 H48        -3.6770   -2.7610    3.2490 h1        1 MOL      0.088601
    112 H49        -3.4600   -0.7780    4.5980 hc        1 MOL      0.030441
    113 H50        -3.5760    0.2030    3.1310 hc        1 MOL      0.030441
    114 N11        -5.6500   -0.8670    1.2440 n         1 MOL     -0.148940
    115 C36        -7.0230   -0.4590    0.8510 c3        1 MOL      0.036574
    116 C37        -7.0570    0.8140   -0.0590 c         1 MOL      0.429455
    117 O19        -7.2620    0.7890   -1.3220 o         1 MOL     -0.521878
    118 C38        -7.7840   -1.5740    0.1810 c3        1 MOL     -0.307205
    119 C39        -9.2820   -1.3710    0.1760 ca        1 MOL      0.179804
    120 C40        -9.9960   -1.5900    1.3980 ca        1 MOL     -0.206330
    121 C41        -9.9770   -0.9750   -0.9580 ca        1 MOL     -0.206330
    122 C42       -11.3880   -1.4310    1.3520 ca        1 MOL     -0.058144
    123 C43       -11.3750   -0.9310   -1.0120 ca        1 MOL     -0.058144
    124 C44       -12.1130   -1.2330    0.1510 ca        1 MOL     -0.211280
    125 H51        -4.8650   -0.5170    0.7220 hn        1 MOL      0.158988
    126 H52        -7.5180   -0.2420    1.7970 h1        1 MOL      0.070144
    127 H53        -7.5470   -2.5180    0.6660 hc        1 MOL      0.120463
    128 H54        -7.4920   -1.8110   -0.8390 hc        1 MOL      0.120463
    129 H55        -9.5070   -1.7990    2.3350 ha        1 MOL      0.137946
    130 H56        -9.4390   -0.8150   -1.8760 ha        1 MOL      0.137946
    131 H57       -11.9870   -1.5420    2.2470 ha        1 MOL      0.083438
    132 H58       -11.9280   -0.8110   -1.9360 ha        1 MOL      0.083438
    133 H59       -13.1730   -1.0720    0.2540 ha        1 MOL      0.117114
    134 N12        -6.6360    1.9700    0.5300 n         1 MOL     -0.234908
    135 C45        -6.3820    3.2570   -0.1310 c3        1 MOL      0.082904
    136 C46        -5.5410    3.2530   -1.3720 c         1 MOL      0.239418
    137 O20        -5.5140    4.2680   -2.0360 o         1 MOL     -0.501000
    138 C47        -5.6540    4.1010    0.9580 c3        1 MOL     -0.085486
    139 C48        -6.0400    3.4480    2.2960 c3        1 MOL     -0.029705
    140 C49        -6.2730    2.0110    1.9160 c3        1 MOL      0.098204
    141 H60        -7.3540    3.7110   -0.3140 h1        1 MOL      0.084447
    142 H61        -4.5650    4.1350    0.8650 hc        1 MOL      0.060941
    143 H62        -6.0320    5.1090    0.8330 hc        1 MOL      0.060941
    144 H63        -5.2800    3.5080    3.0720 hc        1 MOL      0.016342
    145 H64        -6.9020    3.9990    2.6510 hc        1 MOL      0.016342
    146 H65        -5.3790    1.4440    2.1560 h1        1 MOL      0.018700
    147 H66        -7.0310    1.6670    2.6140 h1        1 MOL      0.018700
    148 N13        -4.7870    2.1690   -1.7180 n         1 MOL      0.025449
    149 C50        -3.9640    2.0820   -2.9530 c3        1 MOL     -0.203824
    150 C51        -4.9800    1.8030   -4.1170 c         1 MOL      0.514985
    151 O21        -4.9670    2.4000   -5.1760 o         1 MOL     -0.552236
    152 C52        -2.7320    1.1210   -2.8120 c3        1 MOL     -0.015350
    153 C53        -1.8620    1.4370   -1.5630 c3        1 MOL     -0.043793
    154 C54        -2.1120    0.5170   -0.3260 c         1 MOL      0.571229
    155 O22        -1.2390   -0.2380    0.0940 o         1 MOL     -0.581153
    156 O23        -3.2400    0.4970    0.1560 o         1 MOL     -0.581153
    157 H67        -4.7670    1.4840   -0.9660 hn        1 MOL      0.099261
    158 H68        -3.5030    3.0300   -3.1970 h1        1 MOL      0.120734
    159 H69        -2.0550    1.3050   -3.6420 hc        1 MOL      0.013386
    160 H70        -3.0090    0.0620   -2.8640 hc        1 MOL      0.013386
    161 H71        -2.0580    2.4650   -1.2600 hc        1 MOL      0.034242
    162 H72        -0.8190    1.5100   -1.8620 hc        1 MOL      0.034242
    163 N14        -5.9600    0.8780   -3.9640 n         1 MOL     -0.178678
    164 C55        -7.0200    0.4510   -4.9340 c3        1 MOL     -0.225344
    165 H73        -7.8150   -0.0680   -4.3980 h1        1 MOL      0.093522
    166 H74        -7.4330    1.3280   -5.4330 h1        1 MOL      0.093522
    167 H75        -6.5870   -0.2190   -5.6770 h1        1 MOL      0.093522
    168 H76        -5.9090    0.2980   -3.1340 hn        1 MOL      0.189956
    169 Ca1         1.0900   -0.5350    1.3840 Ca        1 MOL      1.797982
    170 O24         0.4020    2.3640    1.7590 oh        1 MOL     -0.919034
    171 H77        -0.4350    2.7530    1.5130 ho        1 MOL      0.433146
    172 H78         0.9550    3.1090    2.0000 ho        1 MOL      0.433146
    173 O25         0.5340   -2.8010    2.6130 oh        1 MOL     -0.919034
    174 H79         0.6430   -3.7140    2.8720 ho        1 MOL      0.433146
    175 H80         0.0580   -2.3970    3.3370 ho        1 MOL      0.433146
    176 O26         1.7430    1.1660   -0.8650 oh        1 MOL     -0.919034
    177 H81         2.1360    2.0370   -0.7770 ho        1 MOL      0.433146
    178 H82         2.2930    0.7220   -1.5030 ho        1 MOL      0.433146
@<TRIPOS>BOND
     1    1    2 1   
     2    1    4 1   
     3    1    5 1   
     4    1    6 1   
     5    2    3 2   
     6    2    7 1   
     7    7    8 1   
     8    7   15 1   
     9    8    9 1   
    10    8   11 1   
    11    8   16 1   
    12    9   10 2   
    13    9   19 1   
    14   11   12 1   
    15   11   17 1   
    16   11   18 1   
    17   12   13 1   
    18   12   14 1   
    19   19   20 1   
    20   19   24 1   
    21   20   21 1   
    22   20   23 1   
    23   20   25 1   
    24   21   22 2   
    25   21   29 1   
    26   23   26 1   
    27   23   27 1   
    28   23   28 1   
    29   29   30 1   
    30   29   37 1   
    31   30   31 1   
    32   30   33 1   
    33   30   38 1   
    34   31   32 2   
    35   31   41 1   
    36   33   34 1   
    37   33   39 1   
    38   33   40 1   
    39   34   35 1   
    40   34   36 1   
    41   41   42 1   
    42   41   45 1   
    43   42   43 1   
    44   42   46 1   
    45   42   47 1   
    46   43   44 2   
    47   43   48 1   
    48   48   49 1   
    49   48   56 1   
    50   49   50 1   
    51   49   52 1   
    52   49   57 1   
    53   50   51 2   
    54   50   62 1   
    55   52   53 1   
    56   52   58 1   
    57   52   59 1   
    58   53   54 1   
    59   53   55 2   
    60   54   60 1   
    61   54   61 1   
    62   62   63 1   
    63   62   66 1   
    64   63   64 1   
    65   63   67 1   
    66   63   68 1   
    67   64   65 2   
    68   64   69 1   
    69   69   70 1   
    70   69   76 1   
    71   70   71 1   
    72   70   73 1   
    73   70   77 1   
    74   71   72 2   
    75   71   83 1   
    76   73   74 1   
    77   73   75 1   
    78   73   78 1   
    79   74   80 1   
    80   74   81 1   
    81   74   82 1   
    82   75   79 1   
    83   83   84 1   
    84   83   91 1   
    85   84   85 1   
    86   84   87 1   
    87   84   92 1   
    88   85   86 2   
    89   85  102 1   
    90   87   88 1   
    91   87   89 1   
    92   87   93 1   
    93   88   90 1   
    94   88   94 1   
    95   88   95 1   
    96   89   96 1   
    97   89   97 1   
    98   89   98 1   
    99   90   99 1   
   100   90  100 1   
   101   90  101 1   
   102  102  103 1   
   103  102  110 1   
   104  103  104 1   
   105  103  106 1   
   106  103  111 1   
   107  104  105 2   
   108  104  114 1   
   109  106  107 1   
   110  106  112 1   
   111  106  113 1   
   112  107  108 1   
   113  107  109 1   
   114  114  115 1   
   115  114  125 1   
   116  115  116 1   
   117  115  118 1   
   118  115  126 1   
   119  116  117 2   
   120  116  134 1   
   121  118  119 1   
   122  118  127 1   
   123  118  128 1   
   124  119  120 ar  
   125  119  121 ar  
   126  120  122 ar  
   127  120  129 1   
   128  121  123 ar  
   129  121  130 1   
   130  122  124 ar  
   131  122  131 1   
   132  123  124 ar  
   133  123  132 1   
   134  124  133 1   
   135  134  135 1   
   136  134  140 1   
   137  135  136 1   
   138  135  138 1   
   139  135  141 1   
   140  136  137 2   
   141  136  148 1   
   142  138  139 1   
   143  138  142 1   
   144  138  143 1   
   145  139  140 1   
   146  139  144 1   
   147  139  145 1   
   148  140  146 1   
   149  140  147 1   
   150  148  149 1   
   151  148  157 1   
   152  149  150 1   
   153  149  152 1   
   154  149  158 1   
   155  150  151 2   
   156  150  163 1   
   157  152  153 1   
   158  152  159 1   
   159  152  160 1   
   160  153  154 1   
   161  153  161 1   
   162  153  162 1   
   163  154  155 1   
   164  154  156 1   
   165  163  164 1   
   166  163  168 1   
   167  164  165 1   
   168  164  166 1   
   169  164  167 1   
   170  170  171 1   
   171  170  172 1   
   172  173  174 1   
   173  173  175 1   
   174  176  177 1   
   175  176  178 1   
@<TRIPOS>SUBSTRUCTURE
     1 MOL         1 TEMP              0 ****  ****    0 ROOT
