@<TRIPOS>MOLECULE
MOL
  189   185     1     0     0
SMALL
resp


@<TRIPOS>ATOM
      1 C1          4.0650    4.3140   -3.5940 c3        1 MOL     -0.386552
      2 C2          4.8180    3.5700   -2.4760 c         1 MOL      0.928621
      3 O1          4.3290    3.4160   -1.3690 o         1 MOL     -0.713214
      4 H1          3.8310    3.6180   -4.3990 hc        1 MOL      0.097257
      5 H2          3.1400    4.7300   -3.1940 hc        1 MOL      0.097257
      6 H3          4.6890    5.1200   -3.9790 hc        1 MOL      0.097257
      7 N1          6.0730    3.1680   -2.7300 n         1 MOL     -0.724080
      8 C3          6.9030    2.1980   -1.9770 c3        1 MOL      0.551831
      9 C4          6.2010    0.8650   -1.7070 c         1 MOL      0.048040
     10 O2          5.6340    0.6210   -0.7120 o         1 MOL     -0.487019
     11 C5          7.7040    2.8270   -0.7850 c3        1 MOL     -0.236373
     12 C6          7.0450    3.8060    0.0940 c         1 MOL      0.737635
     13 O3          6.2420    3.3920    0.9490 o         1 MOL     -0.737123
     14 O4          7.1330    5.0640   -0.1270 o         1 MOL     -0.737123
     15 H4          6.4410    3.3120   -3.6600 hn        1 MOL      0.292216
     16 H5          7.7580    1.9830   -2.6280 h1        1 MOL     -0.015349
     17 H6          8.4580    3.4410   -1.2680 hc        1 MOL      0.031355
     18 H7          8.1310    2.0800   -0.1190 hc        1 MOL      0.031355
     19 N2          6.0050    0.1400   -2.7870 n         1 MOL     -0.290600
     20 C7          5.3650   -1.1410   -2.9780 c3        1 MOL      0.063988
     21 C8          6.0140   -2.2800   -2.2650 c         1 MOL      0.296971
     22 O5          6.3500   -3.3040   -2.8530 o         1 MOL     -0.553526
     23 C9          3.8450   -1.1560   -2.7790 c3        1 MOL      0.240482
     24 C10         3.0900   -2.4070   -3.3240 c3        1 MOL      0.005057
     25 C11         3.2100    0.1560   -3.3410 c3        1 MOL     -0.554186
     26 C12         2.8270   -2.4850   -4.8010 c3        1 MOL     -0.170642
     27 H8          6.2770    0.5780   -3.6530 hn        1 MOL      0.223973
     28 H9          5.3820   -1.3920   -4.0370 h1        1 MOL      0.038941
     29 H10         3.7170   -1.1110   -1.6950 hc        1 MOL     -0.083550
     30 H11         2.1040   -2.4370   -2.8530 hc        1 MOL      0.049776
     31 H12         3.6500   -3.3240   -3.1570 hc        1 MOL      0.049776
     32 H13         2.1300    0.0090   -3.3060 hc        1 MOL      0.125900
     33 H14         3.4370    0.9990   -2.6880 hc        1 MOL      0.125900
     34 H15         3.4920    0.1840   -4.3850 hc        1 MOL      0.125900
     35 H16         2.1000   -1.7490   -5.1450 hc        1 MOL      0.025847
     36 H17         3.7390   -2.4160   -5.4110 hc        1 MOL      0.025847
     37 H18         2.4010   -3.4730   -4.9580 hc        1 MOL      0.025847
     38 N3          6.1560   -2.1590   -0.9640 n         1 MOL     -0.056085
     39 C13         6.9520   -3.0470   -0.0960 c3        1 MOL      0.005232
     40 C14         6.3930   -4.4780    0.3100 c         1 MOL      0.565620
     41 O6          7.1250   -5.4700    0.3070 o         1 MOL     -0.586404
     42 C15         7.3360   -2.2380    1.1650 c3        1 MOL     -0.349558
     43 C16         8.1750   -0.9230    0.9970 c         1 MOL      0.845395
     44 O7          8.0570   -0.0200    1.7890 o         1 MOL     -0.741221
     45 O8          9.0040   -0.8580    0.0380 o         1 MOL     -0.741221
     46 H19         5.9310   -1.2540   -0.5670 hn        1 MOL      0.359857
     47 H20         7.9330   -3.2430   -0.5370 h1        1 MOL      0.048896
     48 H21         7.9140   -2.9460    1.7680 hc        1 MOL      0.090583
     49 H22         6.4260   -1.9480    1.7000 hc        1 MOL      0.090583
     50 N4          5.0810   -4.6940    0.5040 n         1 MOL     -0.480768
     51 C17         4.1260   -3.6810    0.8440 c3        1 MOL      0.143789
     52 C18         2.8020   -4.3020    1.4390 c         1 MOL      0.557164
     53 O9          2.5030   -5.4820    1.1460 o         1 MOL     -0.590762
     54 H23         4.8170   -5.6640    0.4480 hn        1 MOL      0.301648
     55 H24         3.8120   -3.1540   -0.0580 h1        1 MOL     -0.029754
     56 H25         4.4970   -2.8910    1.4810 h1        1 MOL     -0.029754
     57 N5          2.0750   -3.6200    2.2990 n         1 MOL     -0.342885
     58 C19         2.1940   -2.2400    2.7910 c3        1 MOL      0.102470
     59 C20         2.3430   -1.2190    1.5950 c         1 MOL      0.585140
     60 O10         3.4210   -0.7200    1.2810 o         1 MOL     -0.713697
     61 C21         3.2010   -2.1400    3.9090 c3        1 MOL     -0.334374
     62 C22         3.0320   -3.1930    5.0400 c         1 MOL      0.719063
     63 O11         3.7560   -4.2460    4.9400 o         1 MOL     -0.724315
     64 O12         2.1630   -3.0770    5.9650 o         1 MOL     -0.724315
     65 H26         1.3680   -4.2320    2.6810 hn        1 MOL      0.266623
     66 H27         1.2970   -1.9640    3.3510 h1        1 MOL      0.047286
     67 H28         3.1130   -1.1880    4.4220 hc        1 MOL      0.059103
     68 H29         4.2080   -2.1900    3.4900 hc        1 MOL      0.059103
     69 N6          1.2670   -0.8240    0.8860 n         1 MOL     -0.285230
     70 C23        -0.1300   -1.2660    1.0060 c3        1 MOL      0.004057
     71 C24        -0.4770   -2.5730    0.2390 c         1 MOL      0.341844
     72 O13         0.4220   -3.2140   -0.4100 o         1 MOL     -0.508659
     73 H30         1.4030   -0.1410    0.1600 hn        1 MOL      0.298883
     74 H31        -0.8560   -0.5260    0.6850 h1        1 MOL      0.026020
     75 H32        -0.4040   -1.4090    2.0550 h1        1 MOL      0.026020
     76 N7         -1.7630   -2.8990    0.1980 n         1 MOL     -0.201772
     77 C25        -2.3510   -4.1530   -0.3390 c3        1 MOL     -0.059020
     78 C26        -3.1490   -3.8950   -1.6640 c         1 MOL      0.449919
     79 O14        -3.3430   -4.8710   -2.3570 o         1 MOL     -0.524391
     80 C27        -3.0080   -5.0080    0.8460 c3        1 MOL     -0.038606
     81 C28        -4.1050   -4.3190    1.6360 c3        1 MOL     -0.096358
     82 C29        -5.2780   -3.9470    0.7390 c         1 MOL      0.598864
     83 N8         -6.0720   -4.9470    0.4750 n         1 MOL     -0.723635
     84 O15        -5.5240   -2.8350    0.3700 o         1 MOL     -0.562163
     85 H33        -2.4410   -2.2930    0.6380 hn        1 MOL      0.178171
     86 H34        -1.5110   -4.8040   -0.5730 h1        1 MOL      0.139675
     87 H35        -2.1990   -5.2540    1.5250 hc        1 MOL      0.040662
     88 H36        -3.3310   -5.9750    0.4550 hc        1 MOL      0.040662
     89 H37        -3.6970   -3.3690    1.9950 hc        1 MOL      0.037547
     90 H38        -4.4180   -4.9690    2.4490 hc        1 MOL      0.037547
     91 H39        -6.0270   -5.8340    0.9480 hn        1 MOL      0.336039
     92 H40        -6.7590   -4.7670   -0.2470 hn        1 MOL      0.336039
     93 N9         -3.4950   -2.6630   -2.0700 n         1 MOL     -0.263785
     94 C30        -3.7500   -2.1810   -3.4300 c3        1 MOL     -0.062104
     95 C31        -5.0820   -1.4690   -3.5360 c         1 MOL      0.355299
     96 O16        -5.4930   -1.0800   -4.6060 o         1 MOL     -0.540894
     97 C32        -2.6020   -1.3000   -4.0410 c3        1 MOL      0.126760
     98 C33        -1.3010   -2.1580   -4.1500 c3        1 MOL     -0.164056
     99 C34        -2.2080   -0.0580   -3.2280 c3        1 MOL     -0.164056
    100 H41        -3.3370   -1.9520   -1.3790 hn        1 MOL      0.193724
    101 H42        -3.7650   -3.0050   -4.1390 h1        1 MOL      0.118660
    102 H43        -2.8860   -1.0970   -5.0750 hc        1 MOL      0.023578
    103 H44        -0.8490   -2.3270   -3.1750 hc        1 MOL      0.046325
    104 H45        -1.3920   -3.1110   -4.6790 hc        1 MOL      0.046325
    105 H46        -0.6140   -1.5480   -4.7410 hc        1 MOL      0.046325
    106 H47        -3.0270    0.6620   -3.2110 hc        1 MOL      0.046325
    107 H48        -1.9730   -0.2530   -2.1870 hc        1 MOL      0.046325
    108 H49        -1.4240    0.4510   -3.7980 hc        1 MOL      0.046325
    109 N10        -5.8070   -1.2330   -2.4290 n         1 MOL     -0.135907
    110 C35        -7.1650   -0.7240   -2.3750 c3        1 MOL     -0.083694
    111 C36        -7.2590    0.6300   -1.6240 c         1 MOL      0.572712
    112 O17        -8.2890    1.2860   -1.8410 o         1 MOL     -0.570222
    113 C37        -8.0400   -1.7420   -1.6690 c3        1 MOL     -0.153232
    114 C38        -7.9070   -3.1260   -2.2570 c         1 MOL      0.521550
    115 N11        -8.0530   -3.3700   -3.5190 n         1 MOL     -0.699837
    116 O18        -7.6670   -4.0690   -1.5060 o         1 MOL     -0.523963
    117 H50        -5.4140   -1.6090   -1.5750 hn        1 MOL      0.282295
    118 H51        -7.5880   -0.6370   -3.3770 h1        1 MOL      0.084149
    119 H52        -9.1010   -1.4850   -1.6180 hc        1 MOL      0.080537
    120 H53        -7.6700   -1.8950   -0.6530 hc        1 MOL      0.080537
    121 H54        -8.2520   -2.6240   -4.1640 hn        1 MOL      0.357532
    122 H55        -8.0420   -4.3360   -3.8150 hn        1 MOL      0.357532
    123 N12        -6.2590    1.1120   -0.8420 n         1 MOL     -0.356963
    124 C39        -6.3950    2.1990    0.0920 c3        1 MOL      0.180345
    125 C40        -4.9640    2.7770    0.3440 c         1 MOL      0.322446
    126 O19        -3.9540    2.0780    0.1180 o         1 MOL     -0.314675
    127 C41        -7.0020    1.7100    1.4030 c3        1 MOL     -0.131462
    128 C42        -6.3020    0.5180    2.0440 ca        1 MOL      0.059077
    129 C43        -5.0260    0.5930    2.5840 ca        1 MOL     -0.115027
    130 C44        -7.0480   -0.5900    2.4410 ca        1 MOL     -0.115027
    131 C45        -4.4280   -0.4370    3.3480 ca        1 MOL     -0.257847
    132 C46        -6.5390   -1.6230    3.2230 ca        1 MOL     -0.257847
    133 C47        -5.2170   -1.5830    3.6650 ca        1 MOL      0.374441
    134 O20        -4.6750   -2.5530    4.3850 oh        1 MOL     -0.550899
    135 H56        -5.3540    0.6710   -0.8590 hn        1 MOL      0.087124
    136 H57        -6.9820    2.9980   -0.3590 h1        1 MOL      0.028068
    137 H58        -7.9940    1.3700    1.0990 hc        1 MOL      0.052955
    138 H59        -6.9930    2.5700    2.0680 hc        1 MOL      0.052955
    139 H60        -4.3800    1.4480    2.4140 ha        1 MOL      0.091394
    140 H61        -8.1230   -0.6050    2.3530 ha        1 MOL      0.091394
    141 H62        -3.4170   -0.3010    3.6880 ha        1 MOL      0.144862
    142 H63        -7.1380   -2.4640    3.5420 ha        1 MOL      0.144862
    143 H64        -3.7690   -2.2630    4.5230 ho        1 MOL      0.428596
    144 N13        -4.9680    3.9620    0.9430 n         1 MOL     -0.453510
    145 C48        -3.8630    4.7710    1.5570 c3        1 MOL      0.085574
    146 C49        -2.6130    5.1050    0.7200 c         1 MOL      0.180038
    147 O21        -1.9460    6.1460    0.9910 o         1 MOL     -0.473811
    148 C50        -3.3830    4.2940    2.8870 c3        1 MOL     -0.129702
    149 C51        -4.4820    4.1790    3.9350 c3        1 MOL     -0.187486
    150 C52        -3.8890    3.8860    5.2990 c         1 MOL      0.672549
    151 O22        -4.1360    4.6370    6.2940 o         1 MOL     -0.711178
    152 O23        -3.3530    2.7960    5.4900 o         1 MOL     -0.711178
    153 H65        -5.8590    4.4320    0.9950 hn        1 MOL      0.309429
    154 H66        -4.3410    5.7300    1.7920 h1        1 MOL      0.079573
    155 H67        -2.6650    4.9940    3.3150 hc        1 MOL      0.109535
    156 H68        -2.9850    3.2840    2.8080 hc        1 MOL      0.109535
    157 H69        -5.2270    3.4140    3.7060 hc        1 MOL      0.022347
    158 H70        -5.0540    5.1130    3.9270 hc        1 MOL      0.022347
    159 N14        -2.3160    4.2860   -0.3380 n         1 MOL     -0.050087
    160 C53        -1.1810    4.5800   -1.2200 c3        1 MOL     -0.122099
    161 C54        -1.4720    5.6280   -2.3180 c         1 MOL      0.402490
    162 O24        -0.5270    6.1930   -2.9190 o         1 MOL     -0.520708
    163 C55        -0.7450    3.2380   -1.8670 c3        1 MOL      0.013371
    164 C56        -0.2580    2.0810   -0.9110 c3        1 MOL      0.193022
    165 C57         1.0280    2.2720   -0.2310 c         1 MOL      0.531740
    166 O25         1.1370    3.2910    0.4560 o         1 MOL     -0.640252
    167 O26         1.9220    1.4780   -0.4820 o         1 MOL     -0.640252
    168 H71        -2.8700    3.4490   -0.4090 hn        1 MOL      0.111117
    169 H72        -0.3560    4.8870   -0.5780 h1        1 MOL      0.176542
    170 H73         0.0010    3.5960   -2.5860 hc        1 MOL     -0.008507
    171 H74        -1.5770    2.8280   -2.4320 hc        1 MOL     -0.008507
    172 H75        -0.0820    1.1910   -1.5040 hc        1 MOL     -0.071167
    173 H76        -1.0530    1.6960   -0.2790 hc        1 MOL     -0.071167
    174 N15        -2.7480    5.9650   -2.5120 n         1 MOL     -0.170119
    175 C58        -3.3200    6.8630   -3.5170 c3        1 MOL     -0.121013
    176 H77        -3.8860    6.2810   -4.2440 h1        1 MOL      0.065066
    177 H78        -3.9820    7.5790   -3.0300 h1        1 MOL      0.065066
    178 H79        -2.5180    7.3980   -4.0260 h1        1 MOL      0.065066
    179 H80        -3.4040    5.5150   -1.8970 hn        1 MOL      0.174143
    180 Ca1         4.0590    2.0670    0.8820 Ca        1 MOL      1.811731
    181 O27         4.3170    4.0620    3.1700 oh        1 MOL     -0.839826
    182 H81         4.7800    4.8300    2.8370 ho        1 MOL      0.406309
    183 H82         4.6560    3.9330    4.0510 ho        1 MOL      0.406309
    184 O28         2.1960    1.8220    2.7360 oh        1 MOL     -0.839826
    185 H83         1.4580    1.3200    3.0990 ho        1 MOL      0.406309
    186 H84         2.3200    2.5450    3.3550 ho        1 MOL      0.406309
    187 O29         5.7100    1.1000    2.8270 oh        1 MOL     -0.839826
    188 H85         6.5190    0.6730    2.5540 ho        1 MOL      0.406309
    189 H86         5.7450    1.0980    3.7820 ho        1 MOL      0.406309
@<TRIPOS>BOND
     1    1    2 1   
     2    1    4 1   
     3    1    5 1   
     4    1    6 1   
     5    2    3 2   
     6    2    7 1   
     7    7    8 1   
     8    7   15 1   
     9    8    9 1   
    10    8   11 1   
    11    8   16 1   
    12    9   10 2   
    13    9   19 1   
    14   11   12 1   
    15   11   17 1   
    16   11   18 1   
    17   12   13 1   
    18   12   14 1   
    19   19   20 1   
    20   19   27 1   
    21   20   21 1   
    22   20   23 1   
    23   20   28 1   
    24   21   22 2   
    25   21   38 1   
    26   23   24 1   
    27   23   25 1   
    28   23   29 1   
    29   24   26 1   
    30   24   30 1   
    31   24   31 1   
    32   25   32 1   
    33   25   33 1   
    34   25   34 1   
    35   26   35 1   
    36   26   36 1   
    37   26   37 1   
    38   38   39 1   
    39   38   46 1   
    40   39   40 1   
    41   39   42 1   
    42   39   47 1   
    43   40   41 2   
    44   40   50 1   
    45   42   43 1   
    46   42   48 1   
    47   42   49 1   
    48   43   44 1   
    49   43   45 1   
    50   50   51 1   
    51   50   54 1   
    52   51   52 1   
    53   51   55 1   
    54   51   56 1   
    55   52   53 2   
    56   52   57 1   
    57   57   58 1   
    58   57   65 1   
    59   58   59 1   
    60   58   61 1   
    61   58   66 1   
    62   59   60 2   
    63   59   69 1   
    64   61   62 1   
    65   61   67 1   
    66   61   68 1   
    67   62   63 1   
    68   62   64 1   
    69   69   70 1   
    70   69   73 1   
    71   70   71 1   
    72   70   74 1   
    73   70   75 1   
    74   71   72 2   
    75   71   76 1   
    76   76   77 1   
    77   76   85 1   
    78   77   78 1   
    79   77   80 1   
    80   77   86 1   
    81   78   79 2   
    82   78   93 1   
    83   80   81 1   
    84   80   87 1   
    85   80   88 1   
    86   81   82 1   
    87   81   89 1   
    88   81   90 1   
    89   82   83 1   
    90   82   84 2   
    91   83   91 1   
    92   83   92 1   
    93   93   94 1   
    94   93  100 1   
    95   94   95 1   
    96   94   97 1   
    97   94  101 1   
    98   95   96 2   
    99   95  109 1   
   100   97   98 1   
   101   97   99 1   
   102   97  102 1   
   103   98  103 1   
   104   98  104 1   
   105   98  105 1   
   106   99  106 1   
   107   99  107 1   
   108   99  108 1   
   109  109  110 1   
   110  109  117 1   
   111  110  111 1   
   112  110  113 1   
   113  110  118 1   
   114  111  112 2   
   115  111  123 1   
   116  113  114 1   
   117  113  119 1   
   118  113  120 1   
   119  114  115 1   
   120  114  116 2   
   121  115  121 1   
   122  115  122 1   
   123  123  124 1   
   124  123  135 1   
   125  124  125 1   
   126  124  127 1   
   127  124  136 1   
   128  125  126 2   
   129  125  144 1   
   130  127  128 1   
   131  127  137 1   
   132  127  138 1   
   133  128  129 ar  
   134  128  130 ar  
   135  129  131 ar  
   136  129  139 1   
   137  130  132 ar  
   138  130  140 1   
   139  131  133 ar  
   140  131  141 1   
   141  132  133 ar  
   142  132  142 1   
   143  133  134 1   
   144  134  143 1   
   145  144  145 1   
   146  144  153 1   
   147  145  146 1   
   148  145  148 1   
   149  145  154 1   
   150  146  147 2   
   151  146  159 1   
   152  148  149 1   
   153  148  155 1   
   154  148  156 1   
   155  149  150 1   
   156  149  157 1   
   157  149  158 1   
   158  150  151 1   
   159  150  152 1   
   160  159  160 1   
   161  159  168 1   
   162  160  161 1   
   163  160  163 1   
   164  160  169 1   
   165  161  162 2   
   166  161  174 1   
   167  163  164 1   
   168  163  170 1   
   169  163  171 1   
   170  164  165 1   
   171  164  172 1   
   172  164  173 1   
   173  165  166 1   
   174  165  167 1   
   175  174  175 1   
   176  174  179 1   
   177  175  176 1   
   178  175  177 1   
   179  175  178 1   
   180  181  182 1   
   181  181  183 1   
   182  184  185 1   
   183  184  186 1   
   184  187  188 1   
   185  187  189 1   
@<TRIPOS>SUBSTRUCTURE
     1 MOL         1 TEMP              0 ****  ****    0 ROOT
