@<TRIPOS>MOLECULE
MOL
  178   175     1     0     0
SMALL
resp


@<TRIPOS>ATOM
      1 C1         -5.5650    8.2010    1.7390 c3        1 MOL     -0.413883
      2 C2         -6.5410    7.5170    0.7480 c         1 MOL      0.643856
      3 O1         -6.5210    7.7250   -0.4170 o         1 MOL     -0.548067
      4 H1         -5.4850    7.5980    2.6430 hc        1 MOL      0.093296
      5 H2         -4.5830    8.2930    1.2760 hc        1 MOL      0.093296
      6 H3         -5.9410    9.1910    1.9940 hc        1 MOL      0.093296
      7 N1         -7.2320    6.5150    1.2700 n         1 MOL     -0.353573
      8 C3         -8.1360    5.7410    0.4930 c3        1 MOL     -0.045519
      9 C4         -7.3760    4.9040   -0.6100 c         1 MOL      0.566355
     10 O2         -7.8500    4.7530   -1.7400 o         1 MOL     -0.523635
     11 C5         -9.0190    4.8250    1.3370 c3        1 MOL     -0.142174
     12 C6        -10.1570    4.3270    0.4210 c         1 MOL      0.705920
     13 O3        -10.9280    5.2220   -0.0670 o         1 MOL     -0.717454
     14 O4        -10.3270    3.0990    0.3300 o         1 MOL     -0.717454
     15 H4         -7.2170    6.3900    2.2690 hn        1 MOL      0.237273
     16 H5         -8.8180    6.4710    0.0480 h1        1 MOL      0.076956
     17 H6         -9.4090    5.3680    2.1920 hc        1 MOL      0.003683
     18 H7         -8.5530    3.8960    1.6710 hc        1 MOL      0.003683
     19 N2         -6.2010    4.2620   -0.2630 n         1 MOL     -0.429430
     20 C7         -5.3610    3.3520   -1.0730 c3        1 MOL      0.162712
     21 C8         -4.4860    2.4710   -0.1290 c         1 MOL      0.416719
     22 O5         -3.7640    2.9870    0.7440 o         1 MOL     -0.529732
     23 C9         -4.4350    4.1160   -1.9600 c3        1 MOL     -0.290738
     24 H8         -5.9950    4.4420    0.7140 hn        1 MOL      0.221210
     25 H9         -6.0070    2.7090   -1.6720 h1        1 MOL      0.099220
     26 H10        -3.8610    3.3950   -2.5310 hc        1 MOL      0.081153
     27 H11        -5.0570    4.6180   -2.7000 hc        1 MOL      0.081153
     28 H12        -3.7150    4.7380   -1.4310 hc        1 MOL      0.081153
     29 N3         -4.5890    1.1450   -0.1300 n         1 MOL     -0.220457
     30 C10        -5.4910    0.1860   -0.8370 c3        1 MOL     -0.169717
     31 C11        -5.6940   -1.1330   -0.0740 c         1 MOL      0.466836
     32 O6         -4.9620   -1.5300    0.8020 o         1 MOL     -0.458352
     33 C12        -5.0230   -0.1210   -2.2590 c3        1 MOL     -0.096579
     34 C13        -3.5200   -0.5110   -2.4150 c         1 MOL      0.465035
     35 O7         -2.8420   -0.8220   -1.3900 o         1 MOL     -0.620769
     36 O8         -3.1030   -0.7490   -3.5660 o         1 MOL     -0.620769
     37 H13        -4.0010    0.6990    0.5690 hn        1 MOL      0.203007
     38 H14        -6.4910    0.6200   -0.9510 h1        1 MOL      0.082793
     39 H15        -5.3530    0.6860   -2.9090 hc        1 MOL      0.068750
     40 H16        -5.5330   -1.0050   -2.6330 hc        1 MOL      0.068750
     41 N4         -6.7500   -1.8690   -0.4840 n         1 MOL     -0.294788
     42 C14        -7.0920   -3.1960   -0.0300 c3        1 MOL     -0.049739
     43 C15        -7.1170   -4.2940   -1.0840 c         1 MOL      0.571611
     44 O9         -8.1690   -4.7860   -1.4000 o         1 MOL     -0.537764
     45 H17        -7.2300   -1.4790   -1.2720 hn        1 MOL      0.274282
     46 H18        -8.0210   -3.0120    0.5020 h1        1 MOL      0.067466
     47 H19        -6.4280   -3.3910    0.8040 h1        1 MOL      0.067466
     48 N5         -5.9460   -4.7190   -1.6380 n         1 MOL     -0.564293
     49 C16        -4.6280   -4.3950   -1.1890 c3        1 MOL      0.115274
     50 C17        -4.1250   -5.1870    0.0630 c         1 MOL      0.584598
     51 O10        -4.0180   -6.4020   -0.0210 o         1 MOL     -0.546811
     52 C18        -3.6950   -4.5330   -2.4140 c3        1 MOL     -0.364703
     53 C19        -2.1850   -4.1720   -2.1330 c         1 MOL      0.655844
     54 N6         -1.2930   -4.4870   -3.0540 n         1 MOL     -0.660743
     55 O11        -1.7930   -3.6130   -1.1110 o         1 MOL     -0.544192
     56 H20        -6.0290   -5.5320   -2.2200 hn        1 MOL      0.343534
     57 H21        -4.5190   -3.3400   -0.9530 h1        1 MOL      0.100507
     58 H22        -4.0220   -3.7950   -3.1410 hc        1 MOL      0.112884
     59 H23        -3.7910   -5.4930   -2.9220 hc        1 MOL      0.112884
     60 H24        -1.5010   -4.8430   -3.9770 hn        1 MOL      0.328635
     61 H25        -0.3020   -4.4160   -2.8810 hn        1 MOL      0.328635
     62 N7         -3.9300   -4.4900    1.1900 n         1 MOL     -0.350139
     63 C20        -3.6490   -5.1290    2.5150 c3        1 MOL     -0.125389
     64 C21        -2.1810   -5.4450    2.7720 c         1 MOL      0.485425
     65 O12        -1.9050   -5.9720    3.8650 o         1 MOL     -0.570789
     66 H26        -3.9620   -3.4870    1.0910 hn        1 MOL      0.209801
     67 H27        -4.2720   -6.0170    2.5440 h1        1 MOL      0.100701
     68 H28        -4.0790   -4.4980    3.2890 h1        1 MOL      0.100701
     69 N8         -1.2650   -4.9280    1.9710 n         1 MOL     -0.106541
     70 C22         0.2230   -5.0900    2.1200 c3        1 MOL     -0.040276
     71 C23         1.0000   -3.7690    2.0590 c         1 MOL      0.300913
     72 O13         0.4240   -2.7760    1.6400 o         1 MOL     -0.510145
     73 C24         0.8150   -6.0340    1.1020 c3        1 MOL      0.356953
     74 C25         0.4180   -7.5010    1.4310 c3        1 MOL     -0.485884
     75 O14         0.4800   -5.6830   -0.2310 oh        1 MOL     -0.531637
     76 H29        -1.4600   -4.5740    1.0400 hn        1 MOL      0.101308
     77 H30         0.3580   -5.4410    3.1430 h1        1 MOL      0.055620
     78 H31         1.8980   -5.9110    1.0620 h1        1 MOL     -0.012074
     79 H32         0.9270   -4.8570   -0.4340 ho        1 MOL      0.338408
     80 H33         0.7190   -7.8190    2.4340 hc        1 MOL      0.122425
     81 H34        -0.6600   -7.5220    1.2420 hc        1 MOL      0.122425
     82 H35         0.8250   -8.2100    0.7140 hc        1 MOL      0.122425
     83 N9          2.2680   -3.7520    2.3200 n         1 MOL     -0.103329
     84 C26         3.1760   -2.6050    2.1050 c3        1 MOL      0.037927
     85 C27         3.9960   -2.7850    0.8060 c         1 MOL      0.237987
     86 O15         4.9440   -3.5900    0.6830 o         1 MOL     -0.554820
     87 C28         4.1410   -2.4260    3.3540 c3        1 MOL      0.148736
     88 C29         4.8280   -1.0460    3.1390 c3        1 MOL      0.029635
     89 C30         3.4510   -2.5250    4.7380 c3        1 MOL     -0.370649
     90 C31         5.8600   -0.6370    4.1790 c3        1 MOL     -0.327915
     91 H36         2.6770   -4.6040    2.6800 hn        1 MOL      0.182530
     92 H37         2.4540   -1.7920    2.0560 h1        1 MOL      0.030580
     93 H38         4.8760   -3.2210    3.2420 hc        1 MOL     -0.001795
     94 H39         4.1020   -0.2370    3.1490 hc        1 MOL      0.060529
     95 H40         5.3460   -1.0710    2.1770 hc        1 MOL      0.060529
     96 H41         4.1050   -2.2590    5.5700 hc        1 MOL      0.088320
     97 H42         2.5540   -1.9100    4.8660 hc        1 MOL      0.088320
     98 H43         3.0990   -3.5440    4.8950 hc        1 MOL      0.088320
     99 H44         5.3550   -0.4020    5.1150 hc        1 MOL      0.074080
    100 H45         6.5860   -1.4230    4.3740 hc        1 MOL      0.074080
    101 H46         6.4620    0.1860    3.8070 hc        1 MOL      0.074080
    102 N10         3.5950   -2.0650   -0.2440 n         1 MOL      0.260684
    103 C32         4.0900   -2.3760   -1.6410 c3        1 MOL     -0.254023
    104 C33         5.0910   -1.2610   -2.0940 c         1 MOL      0.573609
    105 O16         5.4810   -1.2040   -3.2680 o         1 MOL     -0.577606
    106 C34         2.8190   -2.4290   -2.5320 c3        1 MOL     -0.086252
    107 C35         1.7900   -3.4430   -2.0710 c         1 MOL      0.821364
    108 O17         1.5870   -4.4550   -2.7570 o         1 MOL     -0.716749
    109 O18         1.0610   -3.2060   -1.1140 o         1 MOL     -0.716749
    110 H47         2.8020   -1.4420   -0.1910 hn        1 MOL     -0.131762
    111 H48         4.5110   -3.3700   -1.7500 h1        1 MOL      0.136570
    112 H49         2.9270   -2.5750   -3.6080 hc        1 MOL      0.041293
    113 H50         2.3360   -1.4480   -2.5080 hc        1 MOL      0.041293
    114 N11         5.4960   -0.3930   -1.2310 n         1 MOL     -0.361095
    115 C36         6.5870    0.5360   -1.3530 c3        1 MOL      0.331187
    116 C37         6.3220    1.9370   -0.7780 c         1 MOL      0.321549
    117 O19         6.0720    2.0630    0.4250 o         1 MOL     -0.560778
    118 C38         7.7440   -0.1370   -0.6360 c3        1 MOL     -0.377994
    119 C39         9.0390    0.5840   -0.8700 ca        1 MOL      0.174540
    120 C40         9.4920    1.6760   -0.0330 ca        1 MOL     -0.182672
    121 C41         9.9190    0.1930   -1.9270 ca        1 MOL     -0.182672
    122 C42        10.7570    2.2930   -0.1990 ca        1 MOL     -0.130827
    123 C43        11.1300    0.8250   -2.1280 ca        1 MOL     -0.130827
    124 C44        11.5740    1.7720   -1.1940 ca        1 MOL     -0.104295
    125 H51         5.0380   -0.4510   -0.3240 hn        1 MOL      0.133479
    126 H52         6.6950    0.5490   -2.4310 h1        1 MOL     -0.000198
    127 H53         7.8510   -1.1480   -1.0080 hc        1 MOL      0.134629
    128 H54         7.4890   -0.1690    0.4160 hc        1 MOL      0.134629
    129 H55         8.8610    1.9710    0.7970 ha        1 MOL      0.132053
    130 H56         9.7050   -0.7080   -2.4850 ha        1 MOL      0.132053
    131 H57        11.1810    2.9970    0.5150 ha        1 MOL      0.115902
    132 H58        11.7700    0.5160   -2.9330 ha        1 MOL      0.115902
    133 H59        12.5500    2.2070   -1.3540 ha        1 MOL      0.088033
    134 N12         6.4750    3.0560   -1.4990 n         1 MOL     -0.005651
    135 C45         6.3150    4.4440   -0.9750 c3        1 MOL      0.002178
    136 C46         5.1870    4.9130   -0.0240 c         1 MOL      0.286802
    137 O20         5.2140    5.9790    0.5670 o         1 MOL     -0.501682
    138 C47         6.2470    5.3330   -2.2180 c3        1 MOL     -0.055194
    139 C48         7.1380    4.5620   -3.2010 c3        1 MOL     -0.058373
    140 C49         6.8170    3.0850   -2.8660 c3        1 MOL     -0.023661
    141 H60         7.2710    4.6200   -0.4780 h1        1 MOL      0.081450
    142 H61         5.2560    5.3640   -2.6900 hc        1 MOL      0.059475
    143 H62         6.7040    6.3110   -2.0720 hc        1 MOL      0.059475
    144 H63         6.9010    4.8360   -4.2260 hc        1 MOL      0.032726
    145 H64         8.1920    4.7510   -3.0150 hc        1 MOL      0.032726
    146 H65         5.9200    2.7150   -3.3620 h1        1 MOL      0.037552
    147 H66         7.6080    2.3780   -3.1350 h1        1 MOL      0.037552
    148 N13         4.0180    4.2300    0.1460 n         1 MOL     -0.052346
    149 C50         2.8050    4.4640    0.9730 c3        1 MOL     -0.453799
    150 C51         3.0970    4.6980    2.4460 c         1 MOL      0.674912
    151 O21         2.2770    5.2690    3.1840 o         1 MOL     -0.566768
    152 C52         1.9210    3.2690    0.8780 c3        1 MOL      0.054920
    153 C53         2.5890    1.9130    1.0080 c3        1 MOL      0.027147
    154 C54         1.6650    0.7090    0.7990 c         1 MOL      0.645025
    155 O22         1.8030    0.0070   -0.2390 o         1 MOL     -0.674808
    156 O23         0.7050    0.4650    1.5700 o         1 MOL     -0.674808
    157 H67         3.8760    3.4050   -0.4130 hn        1 MOL      0.147688
    158 H68         2.3200    5.3700    0.6320 h1        1 MOL      0.184657
    159 H69         1.3670    3.3180   -0.0640 hc        1 MOL      0.056573
    160 H70         1.1010    3.3410    1.5990 hc        1 MOL      0.056573
    161 H71         3.0550    1.7510    1.9810 hc        1 MOL     -0.034232
    162 H72         3.3850    1.7820    0.2840 hc        1 MOL     -0.034232
    163 N14         4.3040    4.2870    2.8580 n         1 MOL     -0.270897
    164 C55         4.7130    4.5510    4.2780 c3        1 MOL     -0.235826
    165 H73         3.8510    4.4240    4.9330 h1        1 MOL      0.097141
    166 H74         5.4960    3.8510    4.5670 h1        1 MOL      0.097141
    167 H75         5.0860    5.5710    4.3640 h1        1 MOL      0.097141
    168 H76         5.0600    3.9350    2.2920 hn        1 MOL      0.292790
    169 Ca1        -0.5070   -1.2110   -0.1640 Ca        1 MOL      1.789799
    170 O24        -2.5310   -1.1200    1.7590 oh        1 MOL     -0.937916
    171 H77        -3.4160   -1.3280    1.4620 ho        1 MOL      0.435091
    172 H78        -2.6550   -0.6350    2.5830 ho        1 MOL      0.435091
    173 O25        -1.2650    1.4040   -0.6560 oh        1 MOL     -0.937916
    174 H79        -1.3300    2.3630   -0.6630 ho        1 MOL      0.435091
    175 H80        -2.1100    1.1140   -1.0010 ho        1 MOL      0.435091
    176 O26        -0.3020   -1.0220   -2.7730 oh        1 MOL     -0.937916
    177 H81         0.1820   -0.4720   -3.3880 ho        1 MOL      0.435091
    178 H82        -1.2240   -0.8710   -2.9800 ho        1 MOL      0.435091
@<TRIPOS>BOND
     1    1    2 1   
     2    1    4 1   
     3    1    5 1   
     4    1    6 1   
     5    2    3 2   
     6    2    7 1   
     7    7    8 1   
     8    7   15 1   
     9    8    9 1   
    10    8   11 1   
    11    8   16 1   
    12    9   10 2   
    13    9   19 1   
    14   11   12 1   
    15   11   17 1   
    16   11   18 1   
    17   12   13 1   
    18   12   14 1   
    19   19   20 1   
    20   19   24 1   
    21   20   21 1   
    22   20   23 1   
    23   20   25 1   
    24   21   22 2   
    25   21   29 1   
    26   23   26 1   
    27   23   27 1   
    28   23   28 1   
    29   29   30 1   
    30   29   37 1   
    31   30   31 1   
    32   30   33 1   
    33   30   38 1   
    34   31   32 2   
    35   31   41 1   
    36   33   34 1   
    37   33   39 1   
    38   33   40 1   
    39   34   35 1   
    40   34   36 1   
    41   41   42 1   
    42   41   45 1   
    43   42   43 1   
    44   42   46 1   
    45   42   47 1   
    46   43   44 2   
    47   43   48 1   
    48   48   49 1   
    49   48   56 1   
    50   49   50 1   
    51   49   52 1   
    52   49   57 1   
    53   50   51 2   
    54   50   62 1   
    55   52   53 1   
    56   52   58 1   
    57   52   59 1   
    58   53   54 1   
    59   53   55 2   
    60   54   60 1   
    61   54   61 1   
    62   62   63 1   
    63   62   66 1   
    64   63   64 1   
    65   63   67 1   
    66   63   68 1   
    67   64   65 2   
    68   64   69 1   
    69   69   70 1   
    70   69   76 1   
    71   70   71 1   
    72   70   73 1   
    73   70   77 1   
    74   71   72 2   
    75   71   83 1   
    76   73   74 1   
    77   73   75 1   
    78   73   78 1   
    79   74   80 1   
    80   74   81 1   
    81   74   82 1   
    82   75   79 1   
    83   83   84 1   
    84   83   91 1   
    85   84   85 1   
    86   84   87 1   
    87   84   92 1   
    88   85   86 2   
    89   85  102 1   
    90   87   88 1   
    91   87   89 1   
    92   87   93 1   
    93   88   90 1   
    94   88   94 1   
    95   88   95 1   
    96   89   96 1   
    97   89   97 1   
    98   89   98 1   
    99   90   99 1   
   100   90  100 1   
   101   90  101 1   
   102  102  103 1   
   103  102  110 1   
   104  103  104 1   
   105  103  106 1   
   106  103  111 1   
   107  104  105 2   
   108  104  114 1   
   109  106  107 1   
   110  106  112 1   
   111  106  113 1   
   112  107  108 1   
   113  107  109 1   
   114  114  115 1   
   115  114  125 1   
   116  115  116 1   
   117  115  118 1   
   118  115  126 1   
   119  116  117 2   
   120  116  134 1   
   121  118  119 1   
   122  118  127 1   
   123  118  128 1   
   124  119  120 ar  
   125  119  121 ar  
   126  120  122 ar  
   127  120  129 1   
   128  121  123 ar  
   129  121  130 1   
   130  122  124 ar  
   131  122  131 1   
   132  123  124 ar  
   133  123  132 1   
   134  124  133 1   
   135  134  135 1   
   136  134  140 1   
   137  135  136 1   
   138  135  138 1   
   139  135  141 1   
   140  136  137 2   
   141  136  148 1   
   142  138  139 1   
   143  138  142 1   
   144  138  143 1   
   145  139  140 1   
   146  139  144 1   
   147  139  145 1   
   148  140  146 1   
   149  140  147 1   
   150  148  149 1   
   151  148  157 1   
   152  149  150 1   
   153  149  152 1   
   154  149  158 1   
   155  150  151 2   
   156  150  163 1   
   157  152  153 1   
   158  152  159 1   
   159  152  160 1   
   160  153  154 1   
   161  153  161 1   
   162  153  162 1   
   163  154  155 1   
   164  154  156 1   
   165  163  164 1   
   166  163  168 1   
   167  164  165 1   
   168  164  166 1   
   169  164  167 1   
   170  170  171 1   
   171  170  172 1   
   172  173  174 1   
   173  173  175 1   
   174  176  177 1   
   175  176  178 1   
@<TRIPOS>SUBSTRUCTURE
     1 MOL         1 TEMP              0 ****  ****    0 ROOT
