@<TRIPOS>MOLECULE
MOL
  184   179     1     0     0
SMALL
resp


@<TRIPOS>ATOM
      1 C1          2.2440   -3.0370    4.1290 c3        1 MOL     -0.251517
      2 C2          3.0490   -1.7560    3.7440 c         1 MOL      0.592269
      3 O1          3.2880   -1.5300    2.5710 o         1 MOL     -0.536893
      4 H1          1.6140   -2.8220    4.9920 hc        1 MOL      0.072509
      5 H2          1.6180   -3.3400    3.2890 hc        1 MOL      0.072509
      6 H3          2.9360   -3.8420    4.3760 hc        1 MOL      0.072509
      7 N1          3.8520   -1.1760    4.7290 n         1 MOL     -0.570085
      8 C3          4.7670   -0.0550    4.4400 c3        1 MOL      0.380767
      9 C4          5.9600   -0.3730    3.4520 c         1 MOL      0.299306
     10 O2          6.4070    0.4450    2.6260 o         1 MOL     -0.372279
     11 C5          5.2840    0.3760    5.8080 c3        1 MOL     -0.400153
     12 C6          6.1340    1.6200    5.6100 c         1 MOL      0.794410
     13 O3          5.7010    2.6360    5.0840 o         1 MOL     -0.733723
     14 O4          7.3410    1.6680    5.9920 o         1 MOL     -0.733723
     15 H4          3.7620   -1.4990    5.6820 hn        1 MOL      0.287478
     16 H5          4.1320    0.7350    4.0330 h1        1 MOL      0.002453
     17 H6          5.9410   -0.3750    6.2570 hc        1 MOL      0.047853
     18 H7          4.4870    0.6410    6.5000 hc        1 MOL      0.047853
     19 N2          6.5470   -1.5650    3.7340 n         1 MOL     -0.341154
     20 C7          7.4710   -2.2660    2.8880 c3        1 MOL      0.236435
     21 C8          7.1560   -2.3850    1.3960 c         1 MOL      0.515669
     22 O5          8.0310   -2.4680    0.5770 o         1 MOL     -0.521424
     23 C9          8.8890   -1.7770    3.2640 c3        1 MOL     -0.281956
     24 H8          6.1630   -2.0410    4.5410 hn        1 MOL      0.230476
     25 H9          7.4290   -3.3080    3.2050 h1        1 MOL      0.005305
     26 H10         9.1120   -0.8400    2.7410 hc        1 MOL      0.071719
     27 H11         8.9740   -1.7070    4.3510 hc        1 MOL      0.071719
     28 H12         9.6390   -2.5190    2.9830 hc        1 MOL      0.071719
     29 N3          5.8270   -2.4150    1.0960 n         1 MOL     -0.782825
     30 C10         5.1880   -2.2320   -0.2590 c3        1 MOL      0.908790
     31 C11         5.6390   -1.0320   -1.1250 c         1 MOL      0.140182
     32 O6          5.8450   -1.1610   -2.3440 o         1 MOL     -0.430559
     33 C12         5.2660   -3.5490   -0.9950 c3        1 MOL     -0.420958
     34 C13         4.2020   -3.7080   -2.0820 c         1 MOL      0.841455
     35 O7          3.0060   -3.3690   -1.9020 o         1 MOL     -0.762977
     36 O8          4.5690   -4.1030   -3.2310 o         1 MOL     -0.762977
     37 H13         5.1940   -2.2960    1.8690 hn        1 MOL      0.298631
     38 H14         4.1340   -2.0320   -0.0540 h1        1 MOL     -0.195969
     39 H15         5.0300   -4.3670   -0.3210 hc        1 MOL      0.079550
     40 H16         6.3160   -3.6520   -1.2630 hc        1 MOL      0.079550
     41 N4          5.8810    0.0990   -0.4340 n         1 MOL      0.060552
     42 C14         6.4460    1.3560   -0.8760 c3        1 MOL     -0.294084
     43 C15         5.6700    2.0970   -1.9850 c         1 MOL      0.471657
     44 O9          6.2740    2.9240   -2.6940 o         1 MOL     -0.549461
     45 H17         5.8800   -0.0690    0.5660 hn        1 MOL      0.047615
     46 H18         7.4590    1.2100   -1.2560 h1        1 MOL      0.142028
     47 H19         6.5480    2.0920   -0.0710 h1        1 MOL      0.142028
     48 N5          4.4000    1.7830   -2.1650 n         1 MOL     -0.120597
     49 C16         3.4430    2.3340   -3.2130 c3        1 MOL     -0.065378
     50 C17         3.0270    3.7650   -2.9150 c         1 MOL      0.502283
     51 O10         3.3640    4.2180   -1.8310 o         1 MOL     -0.472711
     52 C18         2.2510    1.4640   -3.3380 c3        1 MOL     -0.448050
     53 C19         2.7120    0.1180   -3.9620 c         1 MOL      0.666164
     54 N6          2.5310   -0.9450   -3.2240 n         1 MOL     -0.591661
     55 O11         3.1820   -0.0200   -5.0800 o         1 MOL     -0.585135
     56 H20         3.9690    1.0340   -1.6380 hn        1 MOL      0.112278
     57 H21         3.9020    2.3470   -4.2000 h1        1 MOL      0.077802
     58 H22         1.5440    1.9970   -3.9800 hc        1 MOL      0.148478
     59 H23         1.7480    1.3750   -2.3850 hc        1 MOL      0.148478
     60 H24         2.1080   -0.8910   -2.3080 hn        1 MOL      0.327761
     61 H25         2.9750   -1.8060   -3.5190 hn        1 MOL      0.327761
     62 N7          2.3670    4.4870   -3.8550 n         1 MOL     -0.379057
     63 C20         2.0610    5.9690   -3.8060 c3        1 MOL     -0.175452
     64 C21         0.7250    6.3040   -3.1360 c         1 MOL      0.601588
     65 O12        -0.2890    5.9040   -3.6850 o         1 MOL     -0.505900
     66 H26         2.1090    4.0060   -4.7070 hn        1 MOL      0.312168
     67 H27         1.9210    6.2940   -4.8350 h1        1 MOL      0.096275
     68 H28         2.7870    6.5890   -3.2780 h1        1 MOL      0.096275
     69 N8          0.8240    6.9880   -1.9570 n         1 MOL     -0.601434
     70 C22        -0.2880    7.3570   -1.1730 c3        1 MOL      0.022765
     71 C23        -0.9990    6.2140   -0.4300 c         1 MOL      0.506256
     72 O13        -2.1280    6.3410    0.0310 o         1 MOL     -0.568224
     73 C24         0.0230    8.5500   -0.3200 c3        1 MOL      0.359188
     74 C25        -1.1460    9.4350    0.1680 c3        1 MOL     -0.351110
     75 O14         0.8510    8.1820    0.7310 oh        1 MOL     -0.594498
     76 H29         1.7410    7.1800   -1.5840 hn        1 MOL      0.339948
     77 H30        -1.1150    7.6330   -1.8310 h1        1 MOL      0.085151
     78 H31         0.5720    9.2770   -0.9220 h1        1 MOL     -0.017155
     79 H32         1.1760    9.0140    1.0950 ho        1 MOL      0.392136
     80 H33        -1.6600    9.0420    1.0500 hc        1 MOL      0.084801
     81 H34        -0.7430   10.3930    0.4980 hc        1 MOL      0.084801
     82 H35        -1.8860    9.7280   -0.5730 hc        1 MOL      0.084801
     83 N9         -0.3220    5.0400   -0.2900 n         1 MOL     -0.200226
     84 C26        -0.7730    3.8070    0.3650 c3        1 MOL     -0.002872
     85 C27        -1.2060    2.6730   -0.5550 c         1 MOL      0.485711
     86 O15        -0.6110    2.4340   -1.6370 o         1 MOL     -0.471764
     87 C28         0.3230    3.3580    1.3610 c3        1 MOL     -0.004368
     88 C29         1.6980    3.0360    0.6920 c3        1 MOL      0.222173
     89 C30         0.3430    4.3500    2.4840 c3        1 MOL     -0.260145
     90 C31         2.7360    2.3180    1.5390 c3        1 MOL     -0.332496
     91 H36         0.5600    5.0020   -0.7790 hn        1 MOL      0.152937
     92 H37        -1.5870    4.0810    1.0280 h1        1 MOL      0.078373
     93 H38         0.1020    2.3760    1.7900 hc        1 MOL      0.040522
     94 H39         2.2980    3.8970    0.3890 hc        1 MOL      0.009230
     95 H40         1.4310    2.4570   -0.1880 hc        1 MOL      0.009230
     96 H41         1.0320    4.0030    3.2460 hc        1 MOL      0.063283
     97 H42         0.7820    5.3030    2.1710 hc        1 MOL      0.063283
     98 H43        -0.5890    4.5260    3.0160 hc        1 MOL      0.063283
     99 H44         3.2680    3.0540    2.1510 hc        1 MOL      0.081146
    100 H45         2.3190    1.5860    2.2270 hc        1 MOL      0.081146
    101 H46         3.6400    1.9540    1.0570 hc        1 MOL      0.081146
    102 N10        -2.2730    1.9630   -0.1130 n         1 MOL     -0.641757
    103 C32        -2.6740    0.6370   -0.7220 c3        1 MOL      0.534635
    104 C33        -4.2010    0.3200   -0.5780 c         1 MOL      0.214616
    105 O16        -4.5990   -0.7070   -1.0140 o         1 MOL     -0.374903
    106 C34        -1.7320   -0.4970   -0.2870 c3        1 MOL     -0.420445
    107 C35        -1.1650   -1.3360   -1.4970 c         1 MOL      0.745527
    108 O17        -0.0890   -1.9990   -1.2880 o         1 MOL     -0.703948
    109 O18        -1.6500   -1.2200   -2.6520 o         1 MOL     -0.703948
    110 H47        -2.7860    2.2380    0.7100 hn        1 MOL      0.265996
    111 H48        -2.4200    0.8530   -1.7580 h1        1 MOL      0.037784
    112 H49        -2.2300   -1.0940    0.4770 hc        1 MOL      0.080037
    113 H50        -0.8370   -0.1080    0.1970 hc        1 MOL      0.080037
    114 N11        -5.0370    1.2530   -0.0630 n         1 MOL     -0.329241
    115 C36        -6.4960    1.0660    0.0700 c3        1 MOL      0.036905
    116 C37        -6.8450   -0.2470    0.8320 c         1 MOL      0.287710
    117 O19        -6.4690   -0.3180    2.0290 o         1 MOL     -0.396999
    118 C38        -6.9660    2.3310    0.7710 c3        1 MOL     -0.204375
    119 C39        -8.4710    2.2730    1.0050 ca        1 MOL      0.017385
    120 C40        -9.4520    2.1000   -0.0600 ca        1 MOL     -0.120581
    121 C41        -8.8640    2.2070    2.3520 ca        1 MOL     -0.120581
    122 C42       -10.8200    2.2930    0.3530 ca        1 MOL     -0.108198
    123 C43       -10.2130    2.2720    2.6380 ca        1 MOL     -0.108198
    124 C44       -11.1930    2.3050    1.6510 ca        1 MOL     -0.118202
    125 H51        -4.7030    2.2030   -0.0250 hn        1 MOL      0.245839
    126 H52        -6.8420    1.0710   -0.9630 h1        1 MOL      0.075673
    127 H53        -6.6990    3.1980    0.1730 hc        1 MOL      0.112988
    128 H54        -6.4310    2.4520    1.7140 hc        1 MOL      0.112988
    129 H55        -9.1360    1.9750   -1.0770 ha        1 MOL      0.120676
    130 H56        -8.1490    2.0930    3.1570 ha        1 MOL      0.120676
    131 H57       -11.5850    2.2670   -0.4120 ha        1 MOL      0.096521
    132 H58       -10.6020    2.2760    3.6430 ha        1 MOL      0.096521
    133 H59       -12.2200    2.4050    1.9530 ha        1 MOL      0.105200
    134 N12        -7.5300   -1.2040    0.1820 n         1 MOL     -0.111660
    135 C45        -7.7600   -2.6020    0.6560 c3        1 MOL      0.180260
    136 C46        -6.6720   -3.2370    1.5070 c         1 MOL      0.149204
    137 O20        -6.9300   -3.8360    2.5470 o         1 MOL     -0.494150
    138 C47        -7.9080   -3.5140   -0.6360 c3        1 MOL     -0.000790
    139 C48        -8.5870   -2.5790   -1.5900 c3        1 MOL     -0.289433
    140 C49        -8.0320   -1.1830   -1.1870 c3        1 MOL      0.169498
    141 H60        -8.7170   -2.6850    1.1700 h1        1 MOL      0.026733
    142 H61        -6.9200   -3.7310   -1.0400 hc        1 MOL      0.067717
    143 H62        -8.4380   -4.4500   -0.4450 hc        1 MOL      0.067717
    144 H63        -8.2690   -2.9640   -2.5630 hc        1 MOL      0.079379
    145 H64        -9.6590   -2.5450   -1.4030 hc        1 MOL      0.079379
    146 H65        -7.2770   -0.8810   -1.9110 h1        1 MOL      0.003973
    147 H66        -8.8330   -0.4450   -1.2370 h1        1 MOL      0.003973
    148 N13        -5.4200   -3.0710    1.1420 n         1 MOL     -0.136288
    149 C50        -4.2640   -3.6650    1.9010 c3        1 MOL      0.129863
    150 C51        -3.6280   -2.7930    3.0210 c         1 MOL      0.297724
    151 O21        -2.8480   -3.2750    3.8710 o         1 MOL     -0.537365
    152 C52        -3.1610   -3.9920    0.8890 c3        1 MOL     -0.057288
    153 C53        -3.4270   -5.3080    0.1560 c3        1 MOL     -0.108190
    154 C54        -2.3130   -5.6940   -0.8060 c         1 MOL      0.799675
    155 O22        -2.0030   -6.8590   -1.1220 o         1 MOL     -0.751259
    156 O23        -1.8150   -4.8050   -1.5110 o         1 MOL     -0.751259
    157 H67        -5.1900   -2.5400    0.3230 hn        1 MOL      0.201528
    158 H68        -4.5810   -4.5560    2.4490 h1        1 MOL      0.080311
    159 H69        -2.1910   -4.1630    1.3650 hc        1 MOL      0.025374
    160 H70        -3.0800   -3.1640    0.1810 hc        1 MOL      0.025374
    161 H71        -4.3750   -5.2750   -0.3890 hc        1 MOL     -0.017530
    162 H72        -3.5600   -6.1180    0.8590 hc        1 MOL     -0.017530
    163 N14        -4.1070   -1.5390    3.0060 n         1 MOL      0.024610
    164 C55        -3.8170   -0.4540    3.9780 c3        1 MOL     -0.202570
    165 H73        -3.5700   -0.8900    4.9460 h1        1 MOL      0.080886
    166 H74        -2.9740    0.1380    3.6210 h1        1 MOL      0.080886
    167 H75        -4.6930    0.1860    4.0810 h1        1 MOL      0.080886
    168 H76        -4.8090   -1.3940    2.2960 hn        1 MOL      0.052444
    169 Ca1         0.6750   -4.3690   -2.1610 Ca        1 MOL      1.697894
    170 O24         1.0470   -5.1420    0.3920 oh        1 MOL     -0.804626
    171 O25        -0.4910   -5.8200   -4.0960 oh        1 MOL     -0.804626
    172 H77         1.8200   -5.2880    0.9300 ho        1 MOL      0.385415
    173 H78        -0.2830   -5.9110   -5.0260 ho        1 MOL      0.385415
    174 H79         0.3090   -5.3270    0.9750 ho        1 MOL      0.385415
    175 H80        -0.5960   -6.7250   -3.7920 ho        1 MOL      0.385415
    176 O26         1.9160   -6.6290   -2.4420 oh        1 MOL     -0.804626
    177 H81         2.2740   -7.3300   -1.8950 ho        1 MOL      0.385415
    178 H82         1.8790   -7.0080   -3.3180 ho        1 MOL      0.385415
    179 O27        -0.0100   -2.7620   -4.0270 oh        1 MOL     -0.804626
    180 H83        -0.6050   -2.1870   -3.5460 ho        1 MOL      0.385415
    181 H84         0.2090   -2.2710   -4.8100 ho        1 MOL      0.385415
    182 O28         2.3840   -4.5640   -4.5160 oh        1 MOL     -0.804626
    183 H85         2.5490   -5.4730   -4.7520 ho        1 MOL      0.385415
    184 H86         3.1930   -4.2670   -4.0950 ho        1 MOL      0.385415
@<TRIPOS>BOND
     1    1    2 1   
     2    1    4 1   
     3    1    5 1   
     4    1    6 1   
     5    2    3 2   
     6    2    7 1   
     7    7    8 1   
     8    7   15 1   
     9    8    9 1   
    10    8   11 1   
    11    8   16 1   
    12    9   10 2   
    13    9   19 1   
    14   11   12 1   
    15   11   17 1   
    16   11   18 1   
    17   12   13 1   
    18   12   14 1   
    19   19   20 1   
    20   19   24 1   
    21   20   21 1   
    22   20   23 1   
    23   20   25 1   
    24   21   22 2   
    25   21   29 1   
    26   23   26 1   
    27   23   27 1   
    28   23   28 1   
    29   29   30 1   
    30   29   37 1   
    31   30   31 1   
    32   30   33 1   
    33   30   38 1   
    34   31   32 2   
    35   31   41 1   
    36   33   34 1   
    37   33   39 1   
    38   33   40 1   
    39   34   35 1   
    40   34   36 1   
    41   41   42 1   
    42   41   45 1   
    43   42   43 1   
    44   42   46 1   
    45   42   47 1   
    46   43   44 2   
    47   43   48 1   
    48   48   49 1   
    49   48   56 1   
    50   49   50 1   
    51   49   52 1   
    52   49   57 1   
    53   50   51 2   
    54   50   62 1   
    55   52   53 1   
    56   52   58 1   
    57   52   59 1   
    58   53   54 1   
    59   53   55 2   
    60   54   60 1   
    61   54   61 1   
    62   62   63 1   
    63   62   66 1   
    64   63   64 1   
    65   63   67 1   
    66   63   68 1   
    67   64   65 2   
    68   64   69 1   
    69   69   70 1   
    70   69   76 1   
    71   70   71 1   
    72   70   73 1   
    73   70   77 1   
    74   71   72 2   
    75   71   83 1   
    76   73   74 1   
    77   73   75 1   
    78   73   78 1   
    79   74   80 1   
    80   74   81 1   
    81   74   82 1   
    82   75   79 1   
    83   83   84 1   
    84   83   91 1   
    85   84   85 1   
    86   84   87 1   
    87   84   92 1   
    88   85   86 2   
    89   85  102 1   
    90   87   88 1   
    91   87   89 1   
    92   87   93 1   
    93   88   90 1   
    94   88   94 1   
    95   88   95 1   
    96   89   96 1   
    97   89   97 1   
    98   89   98 1   
    99   90   99 1   
   100   90  100 1   
   101   90  101 1   
   102  102  103 1   
   103  102  110 1   
   104  103  104 1   
   105  103  106 1   
   106  103  111 1   
   107  104  105 2   
   108  104  114 1   
   109  106  107 1   
   110  106  112 1   
   111  106  113 1   
   112  107  108 1   
   113  107  109 1   
   114  114  115 1   
   115  114  125 1   
   116  115  116 1   
   117  115  118 1   
   118  115  126 1   
   119  116  117 2   
   120  116  134 1   
   121  118  119 1   
   122  118  127 1   
   123  118  128 1   
   124  119  120 ar  
   125  119  121 ar  
   126  120  122 ar  
   127  120  129 1   
   128  121  123 ar  
   129  121  130 1   
   130  122  124 ar  
   131  122  131 1   
   132  123  124 ar  
   133  123  132 1   
   134  124  133 1   
   135  134  135 1   
   136  134  140 1   
   137  135  136 1   
   138  135  138 1   
   139  135  141 1   
   140  136  137 2   
   141  136  148 1   
   142  138  139 1   
   143  138  142 1   
   144  138  143 1   
   145  139  140 1   
   146  139  144 1   
   147  139  145 1   
   148  140  146 1   
   149  140  147 1   
   150  148  149 1   
   151  148  157 1   
   152  149  150 1   
   153  149  152 1   
   154  149  158 1   
   155  150  151 2   
   156  150  163 1   
   157  152  153 1   
   158  152  159 1   
   159  152  160 1   
   160  153  154 1   
   161  153  161 1   
   162  153  162 1   
   163  154  155 1   
   164  154  156 1   
   165  163  164 1   
   166  163  168 1   
   167  164  165 1   
   168  164  166 1   
   169  164  167 1   
   170  170  172 1   
   171  170  174 1   
   172  171  173 1   
   173  171  175 1   
   174  176  177 1   
   175  176  178 1   
   176  179  180 1   
   177  179  181 1   
   178  182  183 1   
   179  182  184 1   
@<TRIPOS>SUBSTRUCTURE
     1 MOL         1 TEMP              0 ****  ****    0 ROOT
