@<TRIPOS>MOLECULE
MOL
  184   179     1     0     0
SMALL
resp


@<TRIPOS>ATOM
      1 C1         -2.8610   -2.8140   -2.1800 c3        1 MOL     -0.435453
      2 C2         -4.2990   -2.8420   -1.9420 c         1 MOL      0.815713
      3 O1         -4.9240   -1.7850   -1.8020 o         1 MOL     -0.621283
      4 H1         -2.3400   -3.1690   -1.2910 hc        1 MOL      0.102504
      5 H2         -2.6190   -3.4600   -3.0250 hc        1 MOL      0.102504
      6 H3         -2.5480   -1.7940   -2.3990 hc        1 MOL      0.102504
      7 N1         -4.7900   -4.0440   -1.6800 n         1 MOL     -0.692765
      8 C3         -6.2310   -4.2180   -1.4240 c3        1 MOL      0.309309
      9 C4         -6.6950   -3.4290   -0.1740 c         1 MOL      0.678486
     10 O2         -5.9650   -3.4710    0.8350 o         1 MOL     -0.587339
     11 C5         -6.5700   -5.6900   -1.2220 c3        1 MOL     -0.256440
     12 C6         -8.0320   -5.9310   -1.0520 c         1 MOL      0.780255
     13 O3         -8.7540   -5.5830   -2.0280 o         1 MOL     -0.735025
     14 O4         -8.5010   -6.5090   -0.0600 o         1 MOL     -0.735025
     15 H4         -4.2300   -4.8780   -1.7880 hn        1 MOL      0.323685
     16 H5         -6.8130   -3.8960   -2.2870 h1        1 MOL     -0.008538
     17 H6         -6.0650   -5.9170   -0.2820 hc        1 MOL      0.008648
     18 H7         -6.3070   -6.2310   -2.1220 hc        1 MOL      0.008648
     19 N2         -7.8140   -2.7570   -0.2890 n         1 MOL     -0.685158
     20 C7         -8.3490   -2.0510    0.9160 c3        1 MOL      0.245378
     21 C8         -8.9120   -0.6350    0.6120 c         1 MOL      0.372910
     22 O5         -9.3060    0.1190    1.5680 o         1 MOL     -0.570064
     23 C9         -9.4970   -2.8850    1.6310 c3        1 MOL     -0.205628
     24 H8         -8.2930   -2.5820   -1.1540 hn        1 MOL      0.374047
     25 H9         -7.5910   -1.8690    1.6810 h1        1 MOL      0.054486
     26 H10        -9.8010   -2.4350    2.5730 hc        1 MOL      0.052775
     27 H11       -10.3890   -3.0310    1.0150 hc        1 MOL      0.052775
     28 H12        -9.0500   -3.8660    1.7940 hc        1 MOL      0.052775
     29 N3         -8.8720   -0.1850   -0.6510 n         1 MOL     -0.289763
     30 C10        -9.0860    1.2680   -1.0200 c3        1 MOL      0.095705
     31 C11        -7.7120    2.0450   -1.1230 c         1 MOL      0.552466
     32 O6         -7.6330    3.2300   -0.7250 o         1 MOL     -0.613129
     33 C12        -9.8950    1.3980   -2.4020 c3        1 MOL     -0.267284
     34 C13        -9.4150    0.6700   -3.6030 c         1 MOL      0.780520
     35 O7         -8.4640   -0.0650   -3.4750 o         1 MOL     -0.739810
     36 O8        -10.1010    0.7700   -4.6370 o         1 MOL     -0.739810
     37 H13        -8.4400   -0.7820   -1.3420 hn        1 MOL      0.222433
     38 H14        -9.7540    1.7230   -0.2800 h1        1 MOL      0.057499
     39 H15        -9.8540    2.4620   -2.6050 hc        1 MOL      0.037047
     40 H16       -10.9460    1.1120   -2.2860 hc        1 MOL      0.037047
     41 N4         -6.6950    1.4360   -1.6080 n         1 MOL     -0.301542
     42 C14        -5.2610    1.8710   -1.4520 c3        1 MOL     -0.270604
     43 C15        -4.7290    1.7260    0.0170 c         1 MOL      0.616365
     44 O9         -5.2120    0.8780    0.7530 o         1 MOL     -0.484632
     45 H17        -6.7710    0.5220   -2.0200 hn        1 MOL      0.279564
     46 H18        -5.2840    2.9400   -1.6620 h1        1 MOL      0.115627
     47 H19        -4.6000    1.3490   -2.1520 h1        1 MOL      0.115627
     48 N5         -3.7310    2.5260    0.3690 n         1 MOL     -0.330894
     49 C16        -3.0930    2.5210    1.7180 c3        1 MOL     -0.191434
     50 C17        -2.2500    3.8820    1.9530 c         1 MOL      0.469815
     51 O10        -1.5470    4.2690    0.9910 o         1 MOL     -0.349627
     52 C18        -2.1380    1.3420    1.8330 c3        1 MOL     -0.239585
     53 C19        -1.3410    1.3270    3.1160 c         1 MOL      0.495566
     54 N6         -0.0810    1.5570    3.0990 n         1 MOL     -0.648702
     55 O11        -1.9080    1.1100    4.2090 o         1 MOL     -0.605069
     56 H20        -3.3530    3.1720   -0.3150 hn        1 MOL      0.207188
     57 H21        -3.8250    2.4060    2.5280 h1        1 MOL      0.134295
     58 H22        -1.4910    1.3570    0.9550 hc        1 MOL      0.168176
     59 H23        -2.6640    0.4180    1.6220 hc        1 MOL      0.168176
     60 H24         0.4030    1.8850    2.2690 hn        1 MOL      0.334221
     61 H25         0.3840    1.6130    3.9930 hn        1 MOL      0.334221
     62 N7         -2.1610    4.4840    3.1780 n         1 MOL     -0.327162
     63 C20        -1.8120    5.8850    3.3040 c3        1 MOL     -0.127399
     64 C21        -0.4340    6.2930    2.7830 c         1 MOL      0.479077
     65 O12         0.6230    5.9310    3.3450 o         1 MOL     -0.509823
     66 H26        -2.5050    4.0150    4.0060 hn        1 MOL      0.316067
     67 H27        -1.9310    6.1800    4.3490 h1        1 MOL      0.087239
     68 H28        -2.6350    6.4040    2.8080 h1        1 MOL      0.087239
     69 N8         -0.3850    6.9780    1.6840 n         1 MOL     -0.363894
     70 C22         0.8510    7.4520    0.9960 c3        1 MOL     -0.115420
     71 C23         1.5980    6.4120    0.1840 c         1 MOL      0.432101
     72 O13         2.7780    6.5270   -0.1740 o         1 MOL     -0.575542
     73 C24         0.6540    8.6730    0.0980 c3        1 MOL      0.459815
     74 C25        -0.1160    8.4190   -1.1930 c3        1 MOL     -0.399045
     75 O14        -0.0610    9.6600    0.8710 oh        1 MOL     -0.648392
     76 H29        -1.2320    7.3900    1.3150 hn        1 MOL      0.256978
     77 H30         1.5910    7.7510    1.7330 h1        1 MOL      0.125694
     78 H31         1.6660    9.0170   -0.1120 h1        1 MOL      0.026540
     79 H32        -0.9820    9.3940    0.8690 ho        1 MOL      0.378409
     80 H33         0.5300    7.8880   -1.8950 hc        1 MOL      0.099081
     81 H34        -0.9920    7.8030   -0.9820 hc        1 MOL      0.099081
     82 H35        -0.4460    9.3590   -1.6250 hc        1 MOL      0.099081
     83 N9          0.8570    5.3550   -0.1780 n         1 MOL      0.021307
     84 C26         1.3930    4.1690   -0.9580 c3        1 MOL     -0.018193
     85 C27         1.6180    2.9450   -0.0900 c         1 MOL      0.353893
     86 O15         0.9510    2.7590    0.8770 o         1 MOL     -0.348280
     87 C28         0.5290    3.7710   -2.1850 c3        1 MOL      0.095189
     88 C29        -0.9190    3.4660   -1.8260 c3        1 MOL      0.181449
     89 C30         0.5210    4.9680   -3.1570 c3        1 MOL     -0.257018
     90 C31        -1.7580    2.6810   -2.8700 c3        1 MOL     -0.288723
     91 H36        -0.0610    5.1680    0.1700 hn        1 MOL     -0.039091
     92 H37         2.3460    4.4510   -1.4080 h1        1 MOL      0.050326
     93 H38         1.0570    2.8930   -2.5580 hc        1 MOL     -0.016586
     94 H39        -1.4560    4.3980   -1.6340 hc        1 MOL     -0.034446
     95 H40        -0.9760    2.8890   -0.9050 hc        1 MOL     -0.034446
     96 H41         1.4450    5.5520   -3.1740 hc        1 MOL      0.059093
     97 H42         0.3220    4.7010   -4.1940 hc        1 MOL      0.059093
     98 H43        -0.1870    5.7590   -2.9030 hc        1 MOL      0.059093
     99 H44        -1.7630    3.3480   -3.7390 hc        1 MOL      0.071925
    100 H45        -1.2460    1.7870   -3.2080 hc        1 MOL      0.071925
    101 H46        -2.6990    2.3480   -2.4280 hc        1 MOL      0.071925
    102 N10         2.6060    2.0910   -0.4090 n         1 MOL     -0.350341
    103 C32         2.9020    0.9280    0.3830 c3        1 MOL     -0.046154
    104 C33         4.3250    0.3880    0.1600 c         1 MOL      0.492632
    105 O16         4.6090   -0.7910    0.3410 o         1 MOL     -0.410673
    106 C34         1.8510   -0.2310    0.2160 c3        1 MOL     -0.228245
    107 C35         1.7790   -1.3790    1.2830 c         1 MOL      0.764452
    108 O17         2.1640   -1.1970    2.4540 o         1 MOL     -0.749065
    109 O18         1.0620   -2.4170    1.0410 o         1 MOL     -0.749065
    110 H47         3.1710    2.3050   -1.2270 hn        1 MOL      0.266251
    111 H48         2.8330    1.3720    1.3680 h1        1 MOL      0.090837
    112 H49         2.0970   -0.6310   -0.7640 hc        1 MOL      0.082361
    113 H50         0.8250    0.0880    0.0340 hc        1 MOL      0.082361
    114 N11         5.3490    1.2100   -0.1740 n         1 MOL     -0.372025
    115 C36         6.7120    0.7560   -0.1400 c3        1 MOL      0.094014
    116 C37         6.9780   -0.5020   -0.9660 c         1 MOL      0.384642
    117 O19         6.7510   -0.5440   -2.1940 o         1 MOL     -0.459209
    118 C38         7.6610    1.8630   -0.6890 c3        1 MOL     -0.225703
    119 C39         9.0650    1.4260   -1.0100 ca        1 MOL      0.053212
    120 C40         9.9130    1.0890    0.0710 ca        1 MOL     -0.162513
    121 C41         9.4610    1.2900   -2.3730 ca        1 MOL     -0.162513
    122 C42        11.2710    0.7430   -0.2620 ca        1 MOL     -0.093974
    123 C43        10.7840    0.9440   -2.6540 ca        1 MOL     -0.093974
    124 C44        11.6830    0.7230   -1.6150 ca        1 MOL     -0.144704
    125 H51         5.1200    2.1410   -0.4890 hn        1 MOL      0.223283
    126 H52         6.9900    0.7310    0.9010 h1        1 MOL      0.044263
    127 H53         7.7150    2.6510    0.0710 hc        1 MOL      0.100604
    128 H54         7.2250    2.2220   -1.6180 hc        1 MOL      0.100604
    129 H55         9.6640    1.0780    1.1210 ha        1 MOL      0.134102
    130 H56         8.8580    1.5440   -3.2350 ha        1 MOL      0.134102
    131 H57        11.9720    0.5770    0.5490 ha        1 MOL      0.108385
    132 H58        11.0970    0.8630   -3.6830 ha        1 MOL      0.108385
    133 H59        12.7400    0.6050   -1.8130 ha        1 MOL      0.104119
    134 N12         7.6060   -1.6010   -0.4350 n         1 MOL      0.038399
    135 C45         8.0320   -2.7210   -1.2440 c3        1 MOL      0.041545
    136 C46         6.9620   -3.5550   -1.9060 c         1 MOL      0.265009
    137 O20         7.3350   -4.5130   -2.6100 o         1 MOL     -0.518415
    138 C47         8.8430   -3.6990   -0.3720 c3        1 MOL     -0.050705
    139 C48         8.3840   -3.2860    1.0260 c3        1 MOL      0.032743
    140 C49         8.1600   -1.7620    0.8730 c3        1 MOL     -0.163745
    141 H60         8.6560   -2.2470   -2.0060 h1        1 MOL      0.065777
    142 H61         8.7340   -4.7640   -0.5680 hc        1 MOL      0.032828
    143 H62         9.8980   -3.4760   -0.4830 hc        1 MOL      0.032828
    144 H63         7.4500   -3.7750    1.2940 hc        1 MOL      0.015284
    145 H64         9.1690   -3.4040    1.7710 hc        1 MOL      0.015284
    146 H65         7.3920   -1.5490    1.6190 h1        1 MOL      0.050897
    147 H66         9.1170   -1.2590    1.0740 h1        1 MOL      0.050897
    148 N13         5.6960   -3.1640   -1.6810 n         1 MOL     -0.069033
    149 C50         4.5070   -3.6930   -2.4370 c3        1 MOL     -0.110839
    150 C51         3.9870   -2.7590   -3.5120 c         1 MOL      0.417362
    151 O21         3.0530   -3.1570   -4.1950 o         1 MOL     -0.533418
    152 C52         3.4330   -3.9440   -1.4070 c3        1 MOL      0.332514
    153 C53         3.8420   -4.9750   -0.3840 c3        1 MOL     -0.305132
    154 C54         3.1270   -4.8560    0.9620 c         1 MOL      0.725536
    155 O22         3.7290   -4.4450    1.9570 o         1 MOL     -0.773159
    156 O23         1.9040   -5.0500    1.0780 o         1 MOL     -0.773159
    157 H67         5.5110   -2.3820   -1.0530 hn        1 MOL      0.122663
    158 H68         4.7570   -4.6540   -2.8840 h1        1 MOL      0.094980
    159 H69         2.5760   -4.3790   -1.9250 hc        1 MOL     -0.040678
    160 H70         3.0850   -2.9850   -1.0240 hc        1 MOL     -0.040678
    161 H71         4.9080   -4.8930   -0.1690 hc        1 MOL      0.058145
    162 H72         3.6560   -5.9550   -0.8360 hc        1 MOL      0.058145
    163 N14         4.5680   -1.5750   -3.7610 n         1 MOL     -0.134794
    164 C55         4.0880   -0.4750   -4.6520 c3        1 MOL     -0.234533
    165 H73         4.8970    0.2360   -4.8180 h1        1 MOL      0.101283
    166 H74         3.7710   -0.8930   -5.6080 h1        1 MOL      0.101283
    167 H75         3.2470    0.0340   -4.1810 h1        1 MOL      0.101283
    168 H76         5.3170   -1.3410   -3.1330 hn        1 MOL      0.089131
    169 Ca1         1.0590   -3.5730    3.2480 Ca        1 MOL      1.796512
    170 O24        -1.3360   -2.2690    3.0740 oh        1 MOL     -0.842420
    171 H77        -1.6000   -1.9910    3.9520 ho        1 MOL      0.420709
    172 H78        -2.1290   -2.1970    2.5490 ho        1 MOL      0.420709
    173 O25         0.3490   -2.8530    5.7490 oh        1 MOL     -0.842420
    174 H79         0.6750   -1.9620    5.8900 ho        1 MOL      0.420709
    175 H80        -0.3480   -2.9580    6.3990 ho        1 MOL      0.420709
    176 O26         3.2170   -3.0170    4.5950 oh        1 MOL     -0.842420
    177 H81         3.8610   -2.4260    4.2270 ho        1 MOL      0.420709
    178 H82         3.7150   -3.5610    5.2110 ho        1 MOL      0.420709
    179 O27        -0.9830   -5.3560    3.1090 oh        1 MOL     -0.842420
    180 H83        -1.9260   -5.1850    3.1310 ho        1 MOL      0.420709
    181 H84        -0.8970   -6.1870    2.6520 ho        1 MOL      0.420709
    182 O28         2.0340   -5.8460    4.2990 oh        1 MOL     -0.842420
    183 H85         1.9880   -6.5770    3.6970 ho        1 MOL      0.420709
    184 H86         2.3620   -6.2310    5.1200 ho        1 MOL      0.420709
@<TRIPOS>BOND
     1    1    2 1   
     2    1    4 1   
     3    1    5 1   
     4    1    6 1   
     5    2    3 2   
     6    2    7 1   
     7    7    8 1   
     8    7   15 1   
     9    8    9 1   
    10    8   11 1   
    11    8   16 1   
    12    9   10 2   
    13    9   19 1   
    14   11   12 1   
    15   11   17 1   
    16   11   18 1   
    17   12   13 1   
    18   12   14 1   
    19   19   20 1   
    20   19   24 1   
    21   20   21 1   
    22   20   23 1   
    23   20   25 1   
    24   21   22 2   
    25   21   29 1   
    26   23   26 1   
    27   23   27 1   
    28   23   28 1   
    29   29   30 1   
    30   29   37 1   
    31   30   31 1   
    32   30   33 1   
    33   30   38 1   
    34   31   32 2   
    35   31   41 1   
    36   33   34 1   
    37   33   39 1   
    38   33   40 1   
    39   34   35 1   
    40   34   36 1   
    41   41   42 1   
    42   41   45 1   
    43   42   43 1   
    44   42   46 1   
    45   42   47 1   
    46   43   44 2   
    47   43   48 1   
    48   48   49 1   
    49   48   56 1   
    50   49   50 1   
    51   49   52 1   
    52   49   57 1   
    53   50   51 2   
    54   50   62 1   
    55   52   53 1   
    56   52   58 1   
    57   52   59 1   
    58   53   54 1   
    59   53   55 2   
    60   54   60 1   
    61   54   61 1   
    62   62   63 1   
    63   62   66 1   
    64   63   64 1   
    65   63   67 1   
    66   63   68 1   
    67   64   65 2   
    68   64   69 1   
    69   69   70 1   
    70   69   76 1   
    71   70   71 1   
    72   70   73 1   
    73   70   77 1   
    74   71   72 2   
    75   71   83 1   
    76   73   74 1   
    77   73   75 1   
    78   73   78 1   
    79   74   80 1   
    80   74   81 1   
    81   74   82 1   
    82   75   79 1   
    83   83   84 1   
    84   83   91 1   
    85   84   85 1   
    86   84   87 1   
    87   84   92 1   
    88   85   86 2   
    89   85  102 1   
    90   87   88 1   
    91   87   89 1   
    92   87   93 1   
    93   88   90 1   
    94   88   94 1   
    95   88   95 1   
    96   89   96 1   
    97   89   97 1   
    98   89   98 1   
    99   90   99 1   
   100   90  100 1   
   101   90  101 1   
   102  102  103 1   
   103  102  110 1   
   104  103  104 1   
   105  103  106 1   
   106  103  111 1   
   107  104  105 2   
   108  104  114 1   
   109  106  107 1   
   110  106  112 1   
   111  106  113 1   
   112  107  108 1   
   113  107  109 1   
   114  114  115 1   
   115  114  125 1   
   116  115  116 1   
   117  115  118 1   
   118  115  126 1   
   119  116  117 2   
   120  116  134 1   
   121  118  119 1   
   122  118  127 1   
   123  118  128 1   
   124  119  120 ar  
   125  119  121 ar  
   126  120  122 ar  
   127  120  129 1   
   128  121  123 ar  
   129  121  130 1   
   130  122  124 ar  
   131  122  131 1   
   132  123  124 ar  
   133  123  132 1   
   134  124  133 1   
   135  134  135 1   
   136  134  140 1   
   137  135  136 1   
   138  135  138 1   
   139  135  141 1   
   140  136  137 2   
   141  136  148 1   
   142  138  139 1   
   143  138  142 1   
   144  138  143 1   
   145  139  140 1   
   146  139  144 1   
   147  139  145 1   
   148  140  146 1   
   149  140  147 1   
   150  148  149 1   
   151  148  157 1   
   152  149  150 1   
   153  149  152 1   
   154  149  158 1   
   155  150  151 2   
   156  150  163 1   
   157  152  153 1   
   158  152  159 1   
   159  152  160 1   
   160  153  154 1   
   161  153  161 1   
   162  153  162 1   
   163  154  155 1   
   164  154  156 1   
   165  163  164 1   
   166  163  168 1   
   167  164  165 1   
   168  164  166 1   
   169  164  167 1   
   170  170  171 1   
   171  170  172 1   
   172  173  174 1   
   173  173  175 1   
   174  176  177 1   
   175  176  178 1   
   176  179  180 1   
   177  179  181 1   
   178  182  183 1   
   179  182  184 1   
@<TRIPOS>SUBSTRUCTURE
     1 MOL         1 TEMP              0 ****  ****    0 ROOT
