@<TRIPOS>MOLECULE
MOL
  192   187     1     0     0
SMALL
resp


@<TRIPOS>ATOM
      1 C1          9.2170    1.5890    0.6420 c3        1 MOL     -0.626758
      2 C2          8.0460    0.8030   -0.0950 c         1 MOL      0.748717
      3 O1          6.9490    0.7700    0.3650 o         1 MOL     -0.673774
      4 H1          9.9840    1.8610   -0.0830 hc        1 MOL      0.162964
      5 H2          8.8170    2.4920    1.1020 hc        1 MOL      0.162964
      6 H3          9.6550    0.9520    1.4100 hc        1 MOL      0.162964
      7 N1          8.2590    0.0980   -1.2180 n         1 MOL     -0.514646
      8 C3          7.2360   -0.6470   -1.8770 c3        1 MOL      0.120352
      9 C4          7.1600   -2.0560   -1.2030 c         1 MOL      0.371963
     10 O2          7.3870   -3.1050   -1.8520 o         1 MOL     -0.412828
     11 C5          7.5150   -0.7890   -3.3700 c3        1 MOL     -0.372645
     12 C6          8.9090   -1.3360   -3.8740 c         1 MOL      0.743949
     13 O3          9.8480   -1.7120   -3.1080 o         1 MOL     -0.641832
     14 O4          9.0360   -1.3610   -5.1200 o         1 MOL     -0.641832
     15 H4          9.1840    0.1880   -1.5930 hn        1 MOL      0.274163
     16 H5          6.3020   -0.0850   -1.8380 h1        1 MOL      0.110453
     17 H6          7.4140    0.1810   -3.8650 hc        1 MOL      0.121585
     18 H7          6.8750   -1.5450   -3.8250 hc        1 MOL      0.121585
     19 N2          6.7820   -2.1690    0.1100 n         1 MOL     -0.377964
     20 C7          6.3550   -3.3220    0.8080 c3        1 MOL      0.261547
     21 C8          4.9320   -3.6450    0.6540 c         1 MOL      0.476632
     22 O5          4.6720   -4.8130    0.4240 o         1 MOL     -0.550621
     23 C9          6.6510   -3.1970    2.2560 c3        1 MOL     -0.268517
     24 C10         8.1680   -3.0450    2.5040 c3        1 MOL      0.137974
     25 C11         8.6090   -3.1140    3.9520 c3        1 MOL     -0.181153
     26 C12        10.0690   -2.7590    4.1210 c3        1 MOL      0.082252
     27 N3         10.4980   -2.7720    5.5160 n4        1 MOL     -0.240687
     28 H8          6.5720   -1.2820    0.5490 hn        1 MOL      0.297842
     29 H9          6.8570   -4.1680    0.3470 h1        1 MOL      0.042801
     30 H10         6.4440   -4.0960    2.8480 hc        1 MOL      0.055088
     31 H11         6.1190   -2.3540    2.6970 hc        1 MOL      0.055088
     32 H12         8.4710   -2.0930    2.0750 hc        1 MOL     -0.000053
     33 H13         8.7400   -3.8110    1.9770 hc        1 MOL     -0.000053
     34 H14         8.4660   -4.1450    4.2900 hc        1 MOL      0.073325
     35 H15         7.9440   -2.5270    4.5830 hc        1 MOL      0.073325
     36 H16        10.3110   -1.7790    3.7040 hx        1 MOL      0.069936
     37 H17        10.6870   -3.4080    3.5020 hx        1 MOL      0.069936
     38 H18        10.1410   -1.9860    6.0420 hn        1 MOL      0.236441
     39 H19        10.2460   -3.5850    6.0540 hn        1 MOL      0.236441
     40 H20        11.5090   -2.8020    5.5900 hn        1 MOL      0.236441
     41 N4          3.9140   -2.7710    0.6070 n         1 MOL     -0.394717
     42 C13         3.9140   -1.3590    1.1170 c3        1 MOL      0.163519
     43 C14         3.8560   -0.2820   -0.0190 c         1 MOL      0.193180
     44 O6          3.6260   -0.5600   -1.2020 o         1 MOL     -0.406068
     45 C15         2.7350   -1.1650    2.1120 c3        1 MOL     -0.342333
     46 C16         1.3890   -1.7150    1.5990 c         1 MOL      0.723173
     47 O7          0.9010   -1.0810    0.6020 o         1 MOL     -0.649105
     48 O8          0.7910   -2.7260    2.0950 o         1 MOL     -0.649105
     49 H21         3.0320   -3.2660    0.5300 hn        1 MOL      0.328660
     50 H22         4.8920   -1.1500    1.5530 h1        1 MOL      0.045487
     51 H23         2.6350   -0.0960    2.2990 hc        1 MOL      0.056156
     52 H24         3.0290   -1.6190    3.0640 hc        1 MOL      0.056156
     53 N5          4.1320    0.9550    0.3620 n         1 MOL     -0.371170
     54 C17         4.2880    2.0630   -0.5590 c3        1 MOL      0.066840
     55 C18         2.9410    2.6000   -0.9900 c         1 MOL      0.237522
     56 O9          1.8790    2.0670   -0.7110 o         1 MOL     -0.340950
     57 H25         4.5230    1.1440    1.2710 hn        1 MOL      0.313488
     58 H26         4.8820    1.7410   -1.4080 h1        1 MOL      0.085532
     59 H27         4.7940    2.8960   -0.0560 h1        1 MOL      0.085532
     60 N6          2.9640    3.6070   -1.8190 n         1 MOL     -0.240747
     61 C19         1.9310    4.3780   -2.4460 c3        1 MOL      0.350920
     62 C20         2.3540    5.8920   -2.5970 c         1 MOL      0.360304
     63 O10         3.5160    6.3110   -2.6600 o         1 MOL     -0.495261
     64 C21         1.6980    3.7240   -3.9010 c3        1 MOL     -0.254666
     65 C22         1.1840    2.2810   -3.8380 c         1 MOL      0.680379
     66 O11         1.8640    1.4450   -4.4460 o         1 MOL     -0.667224
     67 O12         0.2740    1.9850   -3.0330 o         1 MOL     -0.667224
     68 H28         3.9040    3.9540   -1.9270 hn        1 MOL      0.185334
     69 H29         1.0450    4.3240   -1.8090 h1        1 MOL     -0.097157
     70 H30         2.6580    3.8490   -4.4010 hc        1 MOL      0.061810
     71 H31         0.8150    4.2020   -4.3300 hc        1 MOL      0.061810
     72 N7          1.3110    6.7380   -2.7620 n         1 MOL     -0.375322
     73 C23        -0.1230    6.5090   -2.6710 c3        1 MOL     -0.176928
     74 C24        -0.6530    6.2750   -1.2340 c         1 MOL      0.779680
     75 O13        -0.0170    6.6570   -0.2960 o         1 MOL     -0.546191
     76 H32         1.5000    7.7080   -2.9640 hn        1 MOL      0.316096
     77 H33        -0.3780    5.6230   -3.2480 h1        1 MOL      0.083271
     78 H34        -0.5630    7.4420   -3.0180 h1        1 MOL      0.083271
     79 N8         -1.7790    5.6310   -1.0940 n         1 MOL     -0.804690
     80 C25        -2.3650    5.1950    0.1640 c3        1 MOL      0.330457
     81 C26        -1.8040    3.8860    0.6850 c         1 MOL      0.648285
     82 O14        -1.3810    3.0980   -0.1040 o         1 MOL     -0.609721
     83 C27        -3.8530    5.0490   -0.1710 c3        1 MOL      0.352216
     84 C28        -4.5990    5.1170    1.0920 c3        1 MOL     -0.326503
     85 O15        -4.2720    3.8980   -0.8790 oh        1 MOL     -0.663357
     86 H35        -2.0810    5.0720   -1.8820 hn        1 MOL      0.352045
     87 H36        -2.1500    5.9680    0.9060 h1        1 MOL      0.012574
     88 H37        -4.0080    5.9850   -0.6960 h1        1 MOL      0.006954
     89 H38        -5.1860    3.9710   -1.1680 ho        1 MOL      0.430777
     90 H39        -4.1780    5.7710    1.8580 hc        1 MOL      0.066891
     91 H40        -5.5480    5.6040    0.8730 hc        1 MOL      0.066891
     92 H41        -4.6380    4.0940    1.4750 hc        1 MOL      0.066891
     93 N9         -1.7110    3.7640    2.0170 n         1 MOL     -0.635621
     94 C29        -1.0100    2.7270    2.7960 c3        1 MOL     -0.037688
     95 C30        -1.6430    1.2910    2.7230 c         1 MOL      0.739137
     96 O16        -1.3530    0.6270    1.7400 o         1 MOL     -0.572940
     97 C31         0.5010    2.6130    2.4190 c3        1 MOL      0.315582
     98 C32         1.2830    3.8180    2.0180 c3        1 MOL     -0.137898
     99 C33         1.3070    1.8480    3.5030 c3        1 MOL     -0.319067
    100 C34         1.2280    5.1010    2.9480 c3        1 MOL     -0.338596
    101 H42        -1.9830    4.5840    2.5390 hn        1 MOL      0.317288
    102 H43        -0.9480    3.1480    3.8090 h1        1 MOL      0.070454
    103 H44         0.4980    2.0000    1.5160 hc        1 MOL     -0.174192
    104 H45         1.0640    4.1420    1.0020 hc        1 MOL      0.088197
    105 H46         2.3140    3.4620    1.9900 hc        1 MOL      0.088197
    106 H47         2.3400    1.7260    3.1980 hc        1 MOL      0.078548
    107 H48         1.2070    2.3590    4.4660 hc        1 MOL      0.078548
    108 H49         0.8410    0.8850    3.6850 hc        1 MOL      0.078548
    109 H50         1.8440    5.8430    2.4540 hc        1 MOL      0.087235
    110 H51         0.1870    5.3930    3.0820 hc        1 MOL      0.087235
    111 H52         1.6910    4.8550    3.9040 hc        1 MOL      0.087235
    112 N10        -2.5030    0.9540    3.6520 n         1 MOL     -0.580031
    113 C35        -3.0120   -0.4090    3.8910 c3        1 MOL     -0.237865
    114 C36        -4.2780   -0.7990    3.1290 c         1 MOL      0.677568
    115 O17        -4.4800   -1.9420    2.9380 o         1 MOL     -0.541332
    116 C37        -3.1220   -0.7200    5.4040 c3        1 MOL      0.459086
    117 C38        -4.0810    0.1880    6.0740 c3        1 MOL     -0.283675
    118 O18        -1.8480   -0.4410    5.9650 oh        1 MOL     -0.622222
    119 H53        -2.6720    1.6380    4.3700 hn        1 MOL      0.285991
    120 H54        -2.1550   -0.9170    3.4470 h1        1 MOL      0.149088
    121 H55        -3.3570   -1.7800    5.4570 h1        1 MOL      0.000733
    122 H56        -1.2500   -1.1320    5.6710 ho        1 MOL      0.398872
    123 H57        -5.0620    0.0880    5.6090 hc        1 MOL      0.075715
    124 H58        -4.1230   -0.1570    7.1090 hc        1 MOL      0.075715
    125 H59        -3.7060    1.2120    5.9890 hc        1 MOL      0.075715
    126 N11        -5.0810    0.1990    2.7920 n         1 MOL     -0.303825
    127 C39        -6.3760   -0.0330    2.0200 c3        1 MOL     -0.298821
    128 C40        -5.9980   -0.7330    0.6910 c         1 MOL      0.237521
    129 O19        -5.1010   -0.3370   -0.1160 o         1 MOL     -0.378544
    130 C41        -7.1240    1.2330    1.7820 c3        1 MOL      0.448233
    131 C42        -8.5240    1.1070    1.1830 c3        1 MOL     -0.386687
    132 O20        -7.2780    1.8180    3.0190 oh        1 MOL     -0.585760
    133 H60        -4.7000    1.1240    2.9070 hn        1 MOL      0.252969
    134 H61        -6.9820   -0.7610    2.5640 h1        1 MOL      0.157012
    135 H62        -6.5290    1.8960    1.1500 h1        1 MOL     -0.021664
    136 H63        -6.4360    2.1930    3.3140 ho        1 MOL      0.359985
    137 H64        -9.0210    2.0740    1.1260 hc        1 MOL      0.115123
    138 H65        -8.4900    0.7900    0.1470 hc        1 MOL      0.115123
    139 H66        -9.1020    0.4140    1.7990 hc        1 MOL      0.115123
    140 N12        -6.7090   -1.8600    0.4650 n         1 MOL     -0.076147
    141 C43        -6.7000   -2.8410   -0.5890 c3        1 MOL     -0.088796
    142 C44        -5.4740   -2.8640   -1.4310 c         1 MOL      0.686454
    143 O21        -5.4570   -2.3030   -2.5150 o         1 MOL     -0.536035
    144 C45        -7.9490   -2.5840   -1.4370 c3        1 MOL     -0.130152
    145 C46        -9.3280   -2.3310   -0.8310 c3        1 MOL      0.074944
    146 C47       -10.4390   -2.1110   -1.9260 c3        1 MOL     -0.052323
    147 C48       -11.9790   -2.0940   -1.4650 c3        1 MOL      0.037812
    148 N13       -12.9120   -1.8200   -2.6250 n4        1 MOL     -0.260483
    149 H67        -7.1680   -2.2350    1.2900 hn        1 MOL      0.190978
    150 H68        -6.8130   -3.7990   -0.0620 h1        1 MOL      0.049442
    151 H69        -8.0170   -3.3240   -2.2400 hc        1 MOL      0.053699
    152 H70        -7.7200   -1.6950   -2.0260 hc        1 MOL      0.053699
    153 H71        -9.3180   -1.3510   -0.3470 hc        1 MOL     -0.013829
    154 H72        -9.6790   -3.1420   -0.1890 hc        1 MOL     -0.013829
    155 H73       -10.4250   -2.9330   -2.6370 hc        1 MOL      0.048527
    156 H74       -10.1590   -1.1950   -2.4400 hc        1 MOL      0.048527
    157 H75       -12.0740   -1.5250   -0.5420 hx        1 MOL      0.065985
    158 H76       -12.2430   -3.0880   -1.1030 hx        1 MOL      0.065985
    159 H77       -13.0020   -2.6300   -3.2190 hn        1 MOL      0.214664
    160 H78       -13.8180   -1.5880   -2.2380 hn        1 MOL      0.214664
    161 H79       -12.7390   -0.9580   -3.1140 hn        1 MOL      0.214664
    162 N14        -4.3630   -3.4360   -0.8920 n         1 MOL     -0.579577
    163 C49        -2.9800   -3.4310   -1.3680 c3        1 MOL      0.146615
    164 C50        -2.0280   -2.8110   -0.3800 c         1 MOL      0.255321
    165 O22        -1.8180   -1.5920   -0.4350 o         1 MOL     -0.438093
    166 C51        -2.7070   -4.8500   -1.8680 c3        1 MOL     -0.023498
    167 C52        -3.1950   -5.0520   -3.2880 c3        1 MOL     -0.349860
    168 C53        -3.1430   -6.5840   -3.6480 c         1 MOL      0.643062
    169 O23        -2.0960   -7.0950   -4.1020 o         1 MOL     -0.592116
    170 O24        -4.0700   -7.3410   -3.1790 o         1 MOL     -0.592116
    171 H80        -4.4770   -3.5350    0.1100 hn        1 MOL      0.330501
    172 H81        -3.0110   -2.7480   -2.2150 h1        1 MOL      0.126340
    173 H82        -3.2300   -5.5810   -1.2490 hc        1 MOL      0.074495
    174 H83        -1.6430   -5.1230   -1.8610 hc        1 MOL      0.074495
    175 H84        -2.5140   -4.5180   -3.9540 hc        1 MOL      0.079387
    176 H85        -4.1720   -4.5570   -3.3340 hc        1 MOL      0.079387
    177 N15        -1.4500   -3.4890    0.6490 n         1 MOL     -0.275637
    178 C54        -1.7320   -4.8310    1.2710 c3        1 MOL      0.017332
    179 H86        -2.7880   -5.0730    1.1480 h1        1 MOL      0.029018
    180 H87        -1.1250   -5.5930    0.7820 h1        1 MOL      0.029018
    181 H88        -1.4890   -4.7980    2.3330 h1        1 MOL      0.029018
    182 H89        -0.7010   -2.9980    1.1230 hn        1 MOL      0.263797
    183 Ca1        -0.4210    0.6110   -0.8850 Ca        1 MOL      1.760617
    184 O25        -1.5310   -0.4660   -3.1030 oh        1 MOL     -0.918382
    185 O26         1.2630   -0.5540   -2.6130 oh        1 MOL     -0.918382
    186 H90        -0.8700   -0.4350   -3.7900 ho        1 MOL      0.430468
    187 H91         2.1200   -0.5930   -2.1960 ho        1 MOL      0.430468
    188 H92        -2.3510   -0.6880   -3.5480 ho        1 MOL      0.430468
    189 H93         1.3690    0.0610   -3.3370 ho        1 MOL      0.430468
    190 O27        -3.1140    1.2700   -0.9300 oh        1 MOL     -0.918382
    191 H94        -3.4160    2.1830   -0.8550 ho        1 MOL      0.430468
    192 H95        -3.8170    0.7590   -0.5360 ho        1 MOL      0.430468
@<TRIPOS>BOND
     1    1    2 1   
     2    1    4 1   
     3    1    5 1   
     4    1    6 1   
     5    2    3 2   
     6    2    7 1   
     7    7    8 1   
     8    7   15 1   
     9    8    9 1   
    10    8   11 1   
    11    8   16 1   
    12    9   10 2   
    13    9   19 1   
    14   11   12 1   
    15   11   17 1   
    16   11   18 1   
    17   12   13 1   
    18   12   14 1   
    19   19   20 1   
    20   19   28 1   
    21   20   21 1   
    22   20   23 1   
    23   20   29 1   
    24   21   22 2   
    25   21   41 1   
    26   23   24 1   
    27   23   30 1   
    28   23   31 1   
    29   24   25 1   
    30   24   32 1   
    31   24   33 1   
    32   25   26 1   
    33   25   34 1   
    34   25   35 1   
    35   26   27 1   
    36   26   36 1   
    37   26   37 1   
    38   27   38 1   
    39   27   39 1   
    40   27   40 1   
    41   41   42 1   
    42   41   49 1   
    43   42   43 1   
    44   42   45 1   
    45   42   50 1   
    46   43   44 2   
    47   43   53 1   
    48   45   46 1   
    49   45   51 1   
    50   45   52 1   
    51   46   47 1   
    52   46   48 1   
    53   53   54 1   
    54   53   57 1   
    55   54   55 1   
    56   54   58 1   
    57   54   59 1   
    58   55   56 2   
    59   55   60 1   
    60   60   61 1   
    61   60   68 1   
    62   61   62 1   
    63   61   64 1   
    64   61   69 1   
    65   62   63 2   
    66   62   72 1   
    67   64   65 1   
    68   64   70 1   
    69   64   71 1   
    70   65   66 1   
    71   65   67 1   
    72   72   73 1   
    73   72   76 1   
    74   73   74 1   
    75   73   77 1   
    76   73   78 1   
    77   74   75 2   
    78   74   79 1   
    79   79   80 1   
    80   79   86 1   
    81   80   81 1   
    82   80   83 1   
    83   80   87 1   
    84   81   82 2   
    85   81   93 1   
    86   83   84 1   
    87   83   85 1   
    88   83   88 1   
    89   84   90 1   
    90   84   91 1   
    91   84   92 1   
    92   85   89 1   
    93   93   94 1   
    94   93  101 1   
    95   94   95 1   
    96   94   97 1   
    97   94  102 1   
    98   95   96 2   
    99   95  112 1   
   100   97   98 1   
   101   97   99 1   
   102   97  103 1   
   103   98  100 1   
   104   98  104 1   
   105   98  105 1   
   106   99  106 1   
   107   99  107 1   
   108   99  108 1   
   109  100  109 1   
   110  100  110 1   
   111  100  111 1   
   112  112  113 1   
   113  112  119 1   
   114  113  114 1   
   115  113  116 1   
   116  113  120 1   
   117  114  115 2   
   118  114  126 1   
   119  116  117 1   
   120  116  118 1   
   121  116  121 1   
   122  117  123 1   
   123  117  124 1   
   124  117  125 1   
   125  118  122 1   
   126  126  127 1   
   127  126  133 1   
   128  127  128 1   
   129  127  130 1   
   130  127  134 1   
   131  128  129 2   
   132  128  140 1   
   133  130  131 1   
   134  130  132 1   
   135  130  135 1   
   136  131  137 1   
   137  131  138 1   
   138  131  139 1   
   139  132  136 1   
   140  140  141 1   
   141  140  149 1   
   142  141  142 1   
   143  141  144 1   
   144  141  150 1   
   145  142  143 2   
   146  142  162 1   
   147  144  145 1   
   148  144  151 1   
   149  144  152 1   
   150  145  146 1   
   151  145  153 1   
   152  145  154 1   
   153  146  147 1   
   154  146  155 1   
   155  146  156 1   
   156  147  148 1   
   157  147  157 1   
   158  147  158 1   
   159  148  159 1   
   160  148  160 1   
   161  148  161 1   
   162  162  163 1   
   163  162  171 1   
   164  163  164 1   
   165  163  166 1   
   166  163  172 1   
   167  164  165 2   
   168  164  177 1   
   169  166  167 1   
   170  166  173 1   
   171  166  174 1   
   172  167  168 1   
   173  167  175 1   
   174  167  176 1   
   175  168  169 1   
   176  168  170 1   
   177  177  178 1   
   178  177  182 1   
   179  178  179 1   
   180  178  180 1   
   181  178  181 1   
   182  184  186 1   
   183  184  188 1   
   184  185  187 1   
   185  185  189 1   
   186  190  191 1   
   187  190  192 1   
@<TRIPOS>SUBSTRUCTURE
     1 MOL         1 TEMP              0 ****  ****    0 ROOT
