@<TRIPOS>MOLECULE
MOL
  181   177     1     0     0
SMALL
resp


@<TRIPOS>ATOM
      1 C1          0.5730    6.5100   -1.5640 c3        1 MOL     -0.390402
      2 C2          2.0110    6.0500   -1.2290 c         1 MOL      0.756802
      3 O1          2.6060    6.4150   -0.2180 o         1 MOL     -0.627220
      4 H1          0.6030    7.2210   -2.3900 hc        1 MOL      0.094646
      5 H2         -0.0290    5.6470   -1.8490 hc        1 MOL      0.094646
      6 H3          0.1310    6.9880   -0.6890 hc        1 MOL      0.094646
      7 N1          2.6860    5.3070   -2.0340 n         1 MOL     -0.609787
      8 C3          4.1040    4.8240   -1.9120 c3        1 MOL      0.216073
      9 C4          4.1780    3.8410   -0.7100 c         1 MOL      0.796495
     10 O2          3.3780    2.9310   -0.5820 o         1 MOL     -0.694764
     11 C5          4.6520    4.0680   -3.1610 c3        1 MOL     -0.317870
     12 C6          6.0450    3.5220   -2.9670 c         1 MOL      0.785746
     13 O3          6.2000    2.3370   -2.7800 o         1 MOL     -0.750047
     14 O4          6.9280    4.3250   -2.9080 o         1 MOL     -0.750047
     15 H4          2.1950    4.9050   -2.8260 hn        1 MOL      0.284530
     16 H5          4.7720    5.6650   -1.7710 h1        1 MOL      0.024954
     17 H6          4.6630    4.7570   -4.0120 hc        1 MOL      0.032825
     18 H7          3.9570    3.2730   -3.4210 hc        1 MOL      0.032825
     19 N2          5.0580    4.1300    0.2260 n         1 MOL     -0.712972
     20 C7          5.2490    3.3360    1.3840 c3        1 MOL      0.757957
     21 C8          4.0380    3.4530    2.3350 c         1 MOL      0.254018
     22 O5          3.3450    4.4620    2.3050 o         1 MOL     -0.501528
     23 C9          6.5520    3.7100    2.0950 c3        1 MOL     -0.495350
     24 H8          5.6960    4.8650   -0.0240 hn        1 MOL      0.313685
     25 H9          5.3490    2.2920    1.0970 h1        1 MOL     -0.090711
     26 H10         6.6520    3.2000    3.0460 hc        1 MOL      0.107088
     27 H11         7.3650    3.7130    1.3760 hc        1 MOL      0.107088
     28 H12         6.3830    4.7600    2.3440 hc        1 MOL      0.107088
     29 N3          3.7160    2.5290    3.2050 n         1 MOL     -0.285777
     30 C10         4.4550    1.3190    3.6420 c3        1 MOL      0.015765
     31 C11         4.5410    0.3120    2.4090 c         1 MOL      0.267067
     32 O6          3.6400    0.2620    1.5350 o         1 MOL     -0.264355
     33 C12         3.8240    0.6390    4.8810 c3        1 MOL     -0.012443
     34 C13         2.3600    0.4740    4.9060 c         1 MOL      0.737671
     35 O7          1.8980    0.2410    6.0410 o         1 MOL     -0.712273
     36 O8          1.7000    0.5490    3.8530 o         1 MOL     -0.712273
     37 H13         2.7720    2.5750    3.5550 hn        1 MOL      0.225955
     38 H14         5.4710    1.5820    3.9550 h1        1 MOL      0.020181
     39 H15         4.1520    1.2070    5.7520 hc        1 MOL     -0.003291
     40 H16         4.2330   -0.3590    5.0100 hc        1 MOL     -0.003291
     41 N4          5.5360   -0.5930    2.3990 n         1 MOL     -0.319086
     42 C14         5.7950   -1.3310    1.1920 c3        1 MOL      0.102926
     43 C15         6.6330   -0.5550    0.1020 c         1 MOL      0.414302
     44 O9          6.9260    0.6010    0.3550 o         1 MOL     -0.499489
     45 H17         6.2500   -0.6300    3.1130 hn        1 MOL      0.249923
     46 H18         4.8520   -1.6770    0.7730 h1        1 MOL      0.016870
     47 H19         6.3170   -2.2530    1.4360 h1        1 MOL      0.016870
     48 N5          6.9490   -1.1750   -1.0280 n         1 MOL     -0.322202
     49 C16         6.9150   -2.5950   -1.2940 c3        1 MOL     -0.058880
     50 C17         5.8320   -3.0000   -2.2940 c         1 MOL      0.708570
     51 O10         5.7130   -4.1980   -2.5390 o         1 MOL     -0.557825
     52 C18         8.2860   -2.9810   -1.9520 c3        1 MOL     -0.384032
     53 C19         9.4500   -2.9360   -0.9350 c         1 MOL      0.752319
     54 N6         10.5230   -2.1650   -1.0970 n         1 MOL     -0.835715
     55 O11         9.4520   -3.7380    0.0130 o         1 MOL     -0.576407
     56 H20         7.3530   -0.5710   -1.7230 hn        1 MOL      0.287644
     57 H21         6.7810   -3.1850   -0.3840 h1        1 MOL      0.125670
     58 H22         8.5590   -2.3530   -2.8030 hc        1 MOL      0.113624
     59 H23         8.1910   -4.0240   -2.2580 hc        1 MOL      0.113624
     60 H24        10.5910   -1.5970   -1.9250 hn        1 MOL      0.380471
     61 H25        11.2430   -2.1350   -0.3840 hn        1 MOL      0.380471
     62 N7          5.0250   -2.0580   -2.8550 n         1 MOL     -0.488931
     63 C20         3.9260   -2.4810   -3.7010 c3        1 MOL     -0.087656
     64 C21         2.7730   -3.1910   -3.0150 c         1 MOL      0.419197
     65 O12         1.9060   -3.7310   -3.6840 o         1 MOL     -0.551824
     66 H26         4.9920   -1.0980   -2.5350 hn        1 MOL      0.298654
     67 H27         4.1280   -2.9170   -4.6710 h1        1 MOL      0.111540
     68 H28         3.5140   -1.4830   -3.8850 h1        1 MOL      0.111540
     69 N8          2.8390   -3.3910   -1.7060 n         1 MOL     -0.136144
     70 C22         1.8790   -4.2200   -0.8610 c3        1 MOL     -0.048529
     71 C23         0.5900   -3.4880   -0.4940 c         1 MOL      0.449484
     72 O13         0.6580   -2.4260    0.1460 o         1 MOL     -0.540383
     73 C24         2.5300   -4.8680    0.3190 c3        1 MOL      0.264730
     74 C25         3.3210   -6.1030   -0.1010 c3        1 MOL     -0.401898
     75 O14         3.3290   -3.8440    0.9730 oh        1 MOL     -0.597761
     76 H29         3.5070   -2.8590   -1.1620 hn        1 MOL      0.155743
     77 H30         1.5940   -5.0790   -1.4680 h1        1 MOL      0.082481
     78 H31         1.6950   -5.1820    0.9500 h1        1 MOL      0.002752
     79 H32         2.7150   -3.5110    1.6240 ho        1 MOL      0.390965
     80 H33         2.6600   -6.8550   -0.5430 hc        1 MOL      0.116583
     81 H34         4.0150   -5.8190   -0.8810 hc        1 MOL      0.116583
     82 H35         3.8790   -6.5210    0.7390 hc        1 MOL      0.116583
     83 N9         -0.5420   -4.0520   -0.7440 n         1 MOL     -0.272533
     84 C26        -1.8440   -3.4100   -0.6830 c3        1 MOL     -0.194217
     85 C27        -2.4450   -3.7120    0.6970 c         1 MOL      0.451224
     86 O15        -2.3920   -4.8030    1.1970 o         1 MOL     -0.537675
     87 C28        -2.8930   -3.8740   -1.7640 c3        1 MOL      0.382852
     88 C29        -4.2040   -3.0530   -1.7140 c3        1 MOL      0.032386
     89 C30        -2.2570   -3.7590   -3.1660 c3        1 MOL     -0.326238
     90 C31        -5.1720   -3.5120   -2.7910 c3        1 MOL     -0.084221
     91 H36        -0.4850   -4.9640   -1.1740 hn        1 MOL      0.231256
     92 H37        -1.6320   -2.3600   -0.9080 h1        1 MOL      0.167945
     93 H38        -3.1240   -4.9230   -1.5540 hc        1 MOL     -0.062410
     94 H39        -3.8680   -2.0280   -1.8930 hc        1 MOL     -0.017435
     95 H40        -4.6950   -3.1530   -0.7530 hc        1 MOL     -0.017435
     96 H41        -1.2940   -4.2560   -3.1770 hc        1 MOL      0.073517
     97 H42        -2.9330   -4.3520   -3.7770 hc        1 MOL      0.073517
     98 H43        -2.1290   -2.7280   -3.5100 hc        1 MOL      0.073517
     99 H44        -5.4650   -4.5600   -2.7460 hc        1 MOL     -0.002995
    100 H45        -6.1050   -2.9530   -2.7200 hc        1 MOL     -0.002995
    101 H46        -4.6640   -3.2770   -3.7220 hc        1 MOL     -0.002995
    102 N10        -3.0870   -2.6840    1.2980 n         1 MOL     -0.134167
    103 C32        -3.8930   -2.6690    2.5000 c3        1 MOL      0.133835
    104 C33        -5.1950   -1.8130    2.4950 c         1 MOL      0.360911
    105 O16        -6.0300   -1.9760    3.3430 o         1 MOL     -0.512109
    106 C34        -3.0170   -2.1590    3.6370 c3        1 MOL     -0.159520
    107 C35        -2.3110   -0.8200    3.4760 c         1 MOL      0.792262
    108 O17        -1.1380   -0.8830    2.8990 o         1 MOL     -0.703317
    109 O18        -2.7610    0.2740    3.9100 o         1 MOL     -0.703317
    110 H47        -3.0620   -1.7600    0.8960 hn        1 MOL     -0.093166
    111 H48        -4.1960   -3.7070    2.6040 h1        1 MOL      0.063698
    112 H49        -2.2790   -2.9300    3.8610 hc        1 MOL      0.021267
    113 H50        -3.6730   -2.0730    4.5080 hc        1 MOL      0.021267
    114 N11        -5.3970   -0.9620    1.4870 n         1 MOL     -0.356008
    115 C36        -6.6710   -0.2680    1.1460 c3        1 MOL      0.298343
    116 C37        -6.4930    1.1450    0.4480 c         1 MOL      0.258626
    117 O19        -7.0540    1.3210   -0.5870 o         1 MOL     -0.448599
    118 C38        -7.5100   -1.2930    0.3970 c3        1 MOL     -0.446964
    119 C39        -8.9740   -1.0730    0.2940 ca        1 MOL      0.261282
    120 C40        -9.7230   -0.6490    1.3720 ca        1 MOL     -0.183730
    121 C41        -9.6250   -1.4860   -0.8410 ca        1 MOL     -0.183730
    122 C42       -11.1050   -0.5850    1.2230 ca        1 MOL     -0.143828
    123 C43       -10.9780   -1.3560   -1.0830 ca        1 MOL     -0.143828
    124 C44       -11.7980   -0.9320    0.0560 ca        1 MOL     -0.123511
    125 H51        -4.6730   -0.6970    0.8390 hn        1 MOL      0.253868
    126 H52        -7.2120   -0.0850    2.0720 h1        1 MOL      0.025030
    127 H53        -7.4060   -2.1550    1.0640 hc        1 MOL      0.145607
    128 H54        -7.0280   -1.4170   -0.5730 hc        1 MOL      0.145607
    129 H55        -9.3790   -0.3930    2.3590 ha        1 MOL      0.127099
    130 H56        -9.0160   -1.8430   -1.6580 ha        1 MOL      0.127099
    131 H57       -11.6970   -0.1480    2.0150 ha        1 MOL      0.111474
    132 H58       -11.3540   -1.4620   -2.0870 ha        1 MOL      0.111474
    133 H59       -12.8770   -0.8970    0.1100 ha        1 MOL      0.094750
    134 N12        -5.6380    2.0660    1.0110 n         1 MOL     -0.086171
    135 C45        -5.2270    3.3340    0.4460 c3        1 MOL      0.086844
    136 C46        -4.9610    3.3690   -1.0700 c         1 MOL      0.166329
    137 O20        -5.4510    4.3070   -1.7580 o         1 MOL     -0.469445
    138 C47        -3.9340    3.7810    1.1830 c3        1 MOL     -0.127378
    139 C48        -4.2010    3.2410    2.5560 c3        1 MOL     -0.042332
    140 C49        -5.0160    1.9730    2.3110 c3        1 MOL     -0.064068
    141 H60        -6.0380    4.0150    0.7150 h1        1 MOL      0.048295
    142 H61        -3.0220    3.3530    0.7910 hc        1 MOL      0.070296
    143 H62        -3.8550    4.8760    1.1860 hc        1 MOL      0.070296
    144 H63        -3.3180    2.9890    3.1440 hc        1 MOL      0.042303
    145 H64        -4.8180    3.9610    3.1110 hc        1 MOL      0.042303
    146 H65        -4.3030    1.1500    2.3320 h1        1 MOL      0.073302
    147 H66        -5.7500    1.8950    3.1060 h1        1 MOL      0.073302
    148 N13        -4.2150    2.3960   -1.6910 n         1 MOL      0.065150
    149 C50        -3.9670    2.1830   -3.1110 c3        1 MOL     -0.267768
    150 C51        -5.2250    2.2760   -3.9590 c         1 MOL      0.489364
    151 O21        -5.3600    3.0730   -4.9120 o         1 MOL     -0.563703
    152 C52        -3.2400    0.8630   -3.2760 c3        1 MOL      0.302038
    153 C53        -1.9240    0.5110   -2.4210 c3        1 MOL     -0.558588
    154 C54        -2.0970    0.2520   -0.9030 c         1 MOL      0.697165
    155 O22        -1.1120    0.3600   -0.1410 o         1 MOL     -0.598550
    156 O23        -3.2200    0.0070   -0.4100 o         1 MOL     -0.598550
    157 H67        -3.9040    1.7030   -1.0200 hn        1 MOL      0.110129
    158 H68        -3.3330    2.9900   -3.4530 h1        1 MOL      0.107216
    159 H69        -3.0590    0.6510   -4.3320 hc        1 MOL     -0.050821
    160 H70        -4.0180    0.1670   -2.9720 hc        1 MOL     -0.050821
    161 H71        -1.2810    1.3830   -2.5460 hc        1 MOL      0.154975
    162 H72        -1.6770   -0.4400   -2.8940 hc        1 MOL      0.154975
    163 N14        -6.2160    1.4500   -3.6960 n         1 MOL     -0.184180
    164 C55        -7.4560    1.3840   -4.4830 c3        1 MOL     -0.254241
    165 H73        -7.4430    2.1630   -5.2460 h1        1 MOL      0.105493
    166 H74        -7.5310    0.4090   -4.9630 h1        1 MOL      0.105493
    167 H75        -8.3120    1.5350   -3.8260 h1        1 MOL      0.105493
    168 H76        -5.9400    0.7940   -2.9700 hn        1 MOL      0.247436
    169 Ca1         0.8000   -0.2150    1.6440 Ca        1 MOL      1.534403
    170 O24         2.1940   -2.3400    2.8060 oh        1 MOL     -0.827624
    171 H77         2.8310   -2.9180    3.2330 ho        1 MOL      0.413129
    172 H78         1.3670   -2.8100    2.8460 ho        1 MOL      0.413129
    173 O25        -1.4540    1.8330    2.1070 oh        1 MOL     -0.827624
    174 H79        -1.5660    1.3200    1.3040 ho        1 MOL      0.413129
    175 H80        -2.0510    1.4290    2.7340 ho        1 MOL      0.413129
    176 O26         1.0110    2.5290    1.1260 oh        1 MOL     -0.827624
    177 H81         0.5090    3.2460    1.5110 ho        1 MOL      0.413129
    178 H82         1.9030    2.8700    1.0600 ho        1 MOL      0.413129
    179 O27         1.8330    0.1690   -0.8550 oh        1 MOL     -0.827624
    180 H83         1.3850    0.6240   -1.5660 ho        1 MOL      0.413129
    181 H84         2.7650    0.3080   -1.0350 ho        1 MOL      0.413129
@<TRIPOS>BOND
     1    1    2 1   
     2    1    4 1   
     3    1    5 1   
     4    1    6 1   
     5    2    3 2   
     6    2    7 1   
     7    7    8 1   
     8    7   15 1   
     9    8    9 1   
    10    8   11 1   
    11    8   16 1   
    12    9   10 2   
    13    9   19 1   
    14   11   12 1   
    15   11   17 1   
    16   11   18 1   
    17   12   13 1   
    18   12   14 1   
    19   19   20 1   
    20   19   24 1   
    21   20   21 1   
    22   20   23 1   
    23   20   25 1   
    24   21   22 2   
    25   21   29 1   
    26   23   26 1   
    27   23   27 1   
    28   23   28 1   
    29   29   30 1   
    30   29   37 1   
    31   30   31 1   
    32   30   33 1   
    33   30   38 1   
    34   31   32 2   
    35   31   41 1   
    36   33   34 1   
    37   33   39 1   
    38   33   40 1   
    39   34   35 1   
    40   34   36 1   
    41   41   42 1   
    42   41   45 1   
    43   42   43 1   
    44   42   46 1   
    45   42   47 1   
    46   43   44 2   
    47   43   48 1   
    48   48   49 1   
    49   48   56 1   
    50   49   50 1   
    51   49   52 1   
    52   49   57 1   
    53   50   51 2   
    54   50   62 1   
    55   52   53 1   
    56   52   58 1   
    57   52   59 1   
    58   53   54 1   
    59   53   55 2   
    60   54   60 1   
    61   54   61 1   
    62   62   63 1   
    63   62   66 1   
    64   63   64 1   
    65   63   67 1   
    66   63   68 1   
    67   64   65 2   
    68   64   69 1   
    69   69   70 1   
    70   69   76 1   
    71   70   71 1   
    72   70   73 1   
    73   70   77 1   
    74   71   72 2   
    75   71   83 1   
    76   73   74 1   
    77   73   75 1   
    78   73   78 1   
    79   74   80 1   
    80   74   81 1   
    81   74   82 1   
    82   75   79 1   
    83   83   84 1   
    84   83   91 1   
    85   84   85 1   
    86   84   87 1   
    87   84   92 1   
    88   85   86 2   
    89   85  102 1   
    90   87   88 1   
    91   87   89 1   
    92   87   93 1   
    93   88   90 1   
    94   88   94 1   
    95   88   95 1   
    96   89   96 1   
    97   89   97 1   
    98   89   98 1   
    99   90   99 1   
   100   90  100 1   
   101   90  101 1   
   102  102  103 1   
   103  102  110 1   
   104  103  104 1   
   105  103  106 1   
   106  103  111 1   
   107  104  105 2   
   108  104  114 1   
   109  106  107 1   
   110  106  112 1   
   111  106  113 1   
   112  107  108 1   
   113  107  109 1   
   114  114  115 1   
   115  114  125 1   
   116  115  116 1   
   117  115  118 1   
   118  115  126 1   
   119  116  117 2   
   120  116  134 1   
   121  118  119 1   
   122  118  127 1   
   123  118  128 1   
   124  119  120 ar  
   125  119  121 ar  
   126  120  122 ar  
   127  120  129 1   
   128  121  123 ar  
   129  121  130 1   
   130  122  124 ar  
   131  122  131 1   
   132  123  124 ar  
   133  123  132 1   
   134  124  133 1   
   135  134  135 1   
   136  134  140 1   
   137  135  136 1   
   138  135  138 1   
   139  135  141 1   
   140  136  137 2   
   141  136  148 1   
   142  138  139 1   
   143  138  142 1   
   144  138  143 1   
   145  139  140 1   
   146  139  144 1   
   147  139  145 1   
   148  140  146 1   
   149  140  147 1   
   150  148  149 1   
   151  148  157 1   
   152  149  150 1   
   153  149  152 1   
   154  149  158 1   
   155  150  151 2   
   156  150  163 1   
   157  152  153 1   
   158  152  159 1   
   159  152  160 1   
   160  153  154 1   
   161  153  161 1   
   162  153  162 1   
   163  154  155 1   
   164  154  156 1   
   165  163  164 1   
   166  163  168 1   
   167  164  165 1   
   168  164  166 1   
   169  164  167 1   
   170  170  171 1   
   171  170  172 1   
   172  173  174 1   
   173  173  175 1   
   174  176  177 1   
   175  176  178 1   
   176  179  180 1   
   177  179  181 1   
@<TRIPOS>SUBSTRUCTURE
     1 MOL         1 TEMP              0 ****  ****    0 ROOT
