@<TRIPOS>MOLECULE
MOL
  192   187     1     0     0
SMALL
resp


@<TRIPOS>ATOM
      1 C1         -2.3780    3.9570   -3.4540 c3        1 MOL     -0.384475
      2 C2         -1.5460    4.1890   -2.1570 c         1 MOL      0.654475
      3 O1         -0.6080    3.4640   -1.9770 o         1 MOL     -0.500564
      4 H1         -1.7170    3.9970   -4.3210 hc        1 MOL      0.083303
      5 H2         -2.8580    2.9790   -3.4080 hc        1 MOL      0.083303
      6 H3         -3.1390    4.7320   -3.5420 hc        1 MOL      0.083303
      7 N1         -1.8590    5.1640   -1.3370 n         1 MOL     -0.420566
      8 C3         -1.3370    5.4540    0.0010 c3        1 MOL     -0.057182
      9 C4          0.2040    5.6050    0.0470 c         1 MOL      0.667990
     10 O2          1.0180    5.1900    0.8920 o         1 MOL     -0.536319
     11 C5         -1.9410    4.4740    1.0640 c3        1 MOL     -0.334755
     12 C6         -3.4930    4.3920    0.9340 c         1 MOL      0.818479
     13 O3         -4.1560    5.4420    0.8380 o         1 MOL     -0.767996
     14 O4         -4.0350    3.2530    0.9600 o         1 MOL     -0.767996
     15 H4         -2.6350    5.7360   -1.6420 hn        1 MOL      0.235156
     16 H5         -1.7600    6.4270    0.2780 h1        1 MOL      0.103860
     17 H6         -1.5750    4.7330    2.0660 hc        1 MOL      0.136992
     18 H7         -1.4830    3.5120    0.8720 hc        1 MOL      0.136992
     19 N2          0.7260    6.1880   -1.0360 n         1 MOL     -0.772566
     20 C7          2.2020    6.1640   -1.3250 c3        1 MOL      0.267805
     21 C8          3.0860    6.9650   -0.3040 c         1 MOL      0.600155
     22 O5          2.7020    7.9850    0.1870 o         1 MOL     -0.542771
     23 C9          2.5210    6.3930   -2.8290 c3        1 MOL     -0.013507
     24 C10         2.6330    7.8990   -3.2480 c3        1 MOL     -0.103736
     25 C11         1.6030    5.7220   -3.8270 c3        1 MOL     -0.140373
     26 C12         1.4220    8.8120   -3.1860 c3        1 MOL      0.037035
     27 H8          0.0580    6.3940   -1.7570 hn        1 MOL      0.347793
     28 H9          2.4850    5.1100   -1.2490 h1        1 MOL      0.033141
     29 H10         3.4830    5.8910   -2.9760 hc        1 MOL      0.035017
     30 H11         2.8660    7.9470   -4.3100 hc        1 MOL      0.046383
     31 H12         3.3960    8.4840   -2.7290 hc        1 MOL      0.046383
     32 H13         1.8590    5.8180   -4.8800 hc        1 MOL      0.039909
     33 H14         1.5700    4.6490   -3.6540 hc        1 MOL      0.039909
     34 H15         0.5750    6.0940   -3.7610 hc        1 MOL      0.039909
     35 H16         1.5710    9.6490   -3.8660 hc        1 MOL     -0.017034
     36 H17         0.5060    8.3580   -3.5550 hc        1 MOL     -0.017034
     37 H18         1.3570    9.2890   -2.2070 hc        1 MOL     -0.017034
     38 N3          4.3000    6.5710    0.0760 n         1 MOL     -0.612644
     39 C13         5.0940    5.4890   -0.5460 c3        1 MOL      0.038749
     40 C14         4.7140    4.1380    0.0270 c         1 MOL      0.599931
     41 O6          5.4270    3.1610   -0.2170 o         1 MOL     -0.604976
     42 C15         6.6040    5.8850   -0.3180 c3        1 MOL     -0.226809
     43 C16         7.0230    7.3470   -0.6080 c         1 MOL      0.764239
     44 O7          7.0630    7.8810   -1.7400 o         1 MOL     -0.722204
     45 O8          7.4830    7.9610    0.4270 o         1 MOL     -0.722204
     46 H19         4.7620    7.1280    0.7810 hn        1 MOL      0.348860
     47 H20         4.8660    5.4230   -1.6170 h1        1 MOL      0.052896
     48 H21         7.2730    5.2330   -0.8790 hc        1 MOL      0.056904
     49 H22         6.8040    5.7120    0.7350 hc        1 MOL      0.056904
     50 N4          3.6050    3.9210    0.7820 n         1 MOL     -0.378537
     51 C17         3.2620    2.6600    1.4490 c3        1 MOL     -0.069101
     52 C18         4.2570    2.1780    2.4960 c         1 MOL      0.593463
     53 O9          4.8200    3.0240    3.1840 o         1 MOL     -0.572737
     54 H23         3.0360    4.7210    1.0290 hn        1 MOL      0.291305
     55 H24         3.1880    1.9280    0.6480 h1        1 MOL      0.058867
     56 H25         2.2750    2.8130    1.8870 h1        1 MOL      0.058867
     57 N5          4.4950    0.9090    2.5300 n         1 MOL     -0.452438
     58 C19         5.5570    0.2010    3.1900 c3        1 MOL      0.276164
     59 C20         6.6460   -0.3060    2.2350 c         1 MOL      0.387094
     60 O10         7.6020   -0.9160    2.6640 o         1 MOL     -0.521001
     61 C21         5.0820   -1.0110    4.0140 c3        1 MOL     -0.370608
     62 C22         4.1620   -1.9120    3.2000 c         1 MOL      0.840140
     63 O11         4.1810   -1.8800    1.9670 o         1 MOL     -0.708873
     64 O12         3.3360   -2.6050    3.7930 o         1 MOL     -0.708873
     65 H26         3.9340    0.3030    1.9520 hn        1 MOL      0.235940
     66 H27         6.0750    0.8880    3.8730 h1        1 MOL      0.038508
     67 H28         4.4030   -0.6090    4.7690 hc        1 MOL      0.060233
     68 H29         5.8420   -1.6280    4.4850 hc        1 MOL      0.060233
     69 N6          6.4480   -0.1340    0.8900 n         1 MOL     -0.372428
     70 C23         7.2630   -0.7830   -0.1500 c3        1 MOL     -0.123338
     71 C24         6.9570   -2.2800   -0.4590 c         1 MOL      0.474340
     72 O13         7.4130   -2.8110   -1.4490 o         1 MOL     -0.572674
     73 H30         5.5980    0.3620    0.6590 hn        1 MOL      0.312236
     74 H31         8.3210   -0.7870    0.1080 h1        1 MOL      0.111265
     75 H32         7.2480   -0.2070   -1.0740 h1        1 MOL      0.111265
     76 N7          6.3100   -2.9840    0.4790 n         1 MOL     -0.215553
     77 C25         6.0100   -4.3980    0.4490 c3        1 MOL      0.044676
     78 C26         5.7450   -5.1400   -0.8850 c         1 MOL      0.512452
     79 O14         6.2780   -6.2100   -1.1410 o         1 MOL     -0.500495
     80 C27         7.0110   -5.2740    1.3050 c3        1 MOL      0.129158
     81 C28         7.2060   -4.7400    2.7290 c3        1 MOL     -0.118614
     82 C29         8.3750   -5.3720    3.3990 c         1 MOL      0.565703
     83 N8          9.2770   -4.6410    4.1150 n         1 MOL     -0.774524
     84 O15         8.6140   -6.5460    3.2860 o         1 MOL     -0.551544
     85 H33         5.9970   -2.3850    1.2370 hn        1 MOL      0.110352
     86 H34         5.0380   -4.4130    0.9480 h1        1 MOL      0.046675
     87 H35         7.9430   -5.2310    0.7370 hc        1 MOL     -0.003715
     88 H36         6.7840   -6.3290    1.3770 hc        1 MOL     -0.003715
     89 H37         6.2610   -4.8590    3.2510 hc        1 MOL      0.059340
     90 H38         7.4210   -3.6710    2.7240 hc        1 MOL      0.059340
     91 H39         9.1330   -3.6740    4.3550 hn        1 MOL      0.342744
     92 H40        10.0610   -5.1320    4.5210 hn        1 MOL      0.342744
     93 N9          4.8450   -4.5900   -1.7430 n         1 MOL     -0.374546
     94 C30         4.3860   -5.1580   -3.0340 c3        1 MOL     -0.426112
     95 C31         2.8550   -5.0120   -3.2390 c         1 MOL      0.734880
     96 O16         2.3080   -5.4370   -4.2190 o         1 MOL     -0.602310
     97 C32         5.0780   -4.4840   -4.2910 c3        1 MOL      0.479218
     98 C33         5.0220   -3.0010   -4.3110 c3        1 MOL     -0.423743
     99 C34         6.5460   -4.8710   -4.5660 c3        1 MOL     -0.423743
    100 H41         4.4760   -3.6580   -1.5690 hn        1 MOL      0.308254
    101 H42         4.6210   -6.2240   -3.0190 h1        1 MOL      0.182389
    102 H43         4.4710   -4.7680   -5.1550 hc        1 MOL     -0.066455
    103 H44         5.7200   -2.6920   -3.5320 hc        1 MOL      0.095884
    104 H45         5.3120   -2.6320   -5.2900 hc        1 MOL      0.095884
    105 H46         3.9850   -2.7410   -4.1290 hc        1 MOL      0.095884
    106 H47         6.7550   -5.9330   -4.6780 hc        1 MOL      0.095884
    107 H48         6.7950   -4.2600   -5.4340 hc        1 MOL      0.095884
    108 H49         7.0960   -4.4520   -3.7230 hc        1 MOL      0.095884
    109 N10         2.1650   -4.3860   -2.3090 n         1 MOL     -0.468861
    110 C35         0.7250   -4.0940   -2.3040 c3        1 MOL      0.163771
    111 C36         0.1230   -4.1630   -0.8910 c         1 MOL      0.539699
    112 O17         0.5990   -4.6570    0.1540 o         1 MOL     -0.534341
    113 C37         0.5100   -2.7660   -3.0370 c3        1 MOL     -0.353379
    114 C38         1.0120   -1.5180   -2.3190 c         1 MOL      0.767307
    115 N11         1.8430   -0.6850   -2.8980 n         1 MOL     -0.895965
    116 O18         0.5580   -1.1710   -1.2040 o         1 MOL     -0.546951
    117 H50         2.7420   -4.0400   -1.5550 hn        1 MOL      0.225699
    118 H51         0.2990   -4.9880   -2.7640 h1        1 MOL      0.074733
    119 H52        -0.5470   -2.5680   -3.2220 hc        1 MOL      0.094207
    120 H53         0.8330   -2.7440   -4.0750 hc        1 MOL      0.094207
    121 H54         2.3480   -0.9740   -3.7180 hn        1 MOL      0.397923
    122 H55         1.9890    0.2460   -2.5120 hn        1 MOL      0.397923
    123 N12        -1.0460   -3.5920   -0.8570 n         1 MOL     -0.562927
    124 C39        -1.9390   -3.5070    0.3310 c3        1 MOL      0.155348
    125 C40        -3.4320   -3.4350   -0.2580 c         1 MOL      0.672285
    126 O19        -3.6460   -2.7000   -1.1920 o         1 MOL     -0.601133
    127 C41        -1.5630   -2.2220    1.1190 c3        1 MOL     -0.147927
    128 C42        -2.4940   -2.0910    2.3530 ca        1 MOL      0.012942
    129 C43        -3.6100   -1.2070    2.4590 ca        1 MOL     -0.136996
    130 C44        -2.3770   -3.0170    3.4300 ca        1 MOL     -0.136996
    131 C45        -4.4720   -1.2030    3.5350 ca        1 MOL     -0.315975
    132 C46        -3.2750   -2.9980    4.5600 ca        1 MOL     -0.315975
    133 C47        -4.3620   -2.1160    4.5840 ca        1 MOL      0.434614
    134 O20        -5.2750   -2.0060    5.6230 oh        1 MOL     -0.595697
    135 H56        -1.4440   -3.2020   -1.6950 hn        1 MOL      0.298653
    136 H57        -1.8040   -4.4250    0.9120 h1        1 MOL      0.074803
    137 H58        -1.7290   -1.3400    0.5000 hc        1 MOL      0.110004
    138 H59        -0.5440   -2.2060    1.4940 hc        1 MOL      0.110004
    139 H60        -3.8450   -0.5990    1.6000 ha        1 MOL      0.142745
    140 H61        -1.6540   -3.8220    3.4740 ha        1 MOL      0.142745
    141 H62        -5.2640   -0.4570    3.5040 ha        1 MOL      0.162219
    142 H63        -3.2150   -3.8330    5.2440 ha        1 MOL      0.162219
    143 H64        -5.8760   -1.2550    5.5700 ho        1 MOL      0.412143
    144 N13        -4.2990   -4.3440    0.1970 n         1 MOL     -0.670000
    145 C48        -5.7090   -4.2500   -0.2450 c3        1 MOL      0.314635
    146 C49        -6.6150   -3.7400    0.9200 c         1 MOL      0.535680
    147 O21        -6.6070   -4.2920    2.0050 o         1 MOL     -0.559034
    148 C50        -6.3900   -5.5630   -0.6380 c3        1 MOL      0.197307
    149 C51        -5.9810   -6.1440   -2.0170 c3        1 MOL     -0.225907
    150 C52        -6.0680   -7.6810   -2.0990 c         1 MOL      0.656575
    151 O22        -5.4170   -8.2980   -1.2000 o         1 MOL     -0.694280
    152 O23        -6.7880   -8.1900   -2.9880 o         1 MOL     -0.694280
    153 H65        -4.2070   -4.7330    1.1310 hn        1 MOL      0.318392
    154 H66        -5.8450   -3.6710   -1.1560 h1        1 MOL     -0.013152
    155 H67        -7.4690   -5.4320   -0.5630 hc        1 MOL     -0.030593
    156 H68        -6.2010   -6.2750    0.1700 hc        1 MOL     -0.030593
    157 H69        -4.9250   -5.9610   -2.2180 hc        1 MOL      0.036242
    158 H70        -6.5550   -5.7280   -2.8550 hc        1 MOL      0.036242
    159 N14        -7.3980   -2.6810    0.7640 n         1 MOL     -0.569788
    160 C53        -7.3050   -1.6620   -0.3080 c3        1 MOL     -0.026305
    161 C54        -7.8140   -2.0970   -1.7070 c         1 MOL      0.447589
    162 O24        -8.4960   -3.1480   -1.8100 o         1 MOL     -0.502104
    163 C55        -8.0460   -0.4320    0.1280 c3        1 MOL      0.401119
    164 C56        -7.2860    0.3180    1.3030 c3        1 MOL      0.060053
    165 C57        -8.2320    1.3390    1.8990 c         1 MOL      0.543793
    166 O25        -8.8350    1.1110    2.9810 o         1 MOL     -0.679809
    167 O26        -8.1890    2.5040    1.3890 o         1 MOL     -0.679809
    168 H71        -8.0100   -2.4950    1.5400 hn        1 MOL      0.330093
    169 H72        -6.2840   -1.2950   -0.4170 h1        1 MOL      0.049100
    170 H73        -9.0670   -0.6190    0.4540 hc        1 MOL     -0.142578
    171 H74        -8.0830    0.3220   -0.6560 hc        1 MOL     -0.142578
    172 H75        -6.3690    0.7920    0.9640 hc        1 MOL     -0.047642
    173 H76        -6.9800   -0.3470    2.1160 hc        1 MOL     -0.047642
    174 N15        -7.3820   -1.4420   -2.7790 n         1 MOL     -0.290742
    175 C58        -7.7270   -1.7410   -4.1870 c3        1 MOL     -0.543913
    176 H77        -7.2970   -0.9790   -4.8360 h1        1 MOL      0.195974
    177 H78        -7.3260   -2.7180   -4.4610 h1        1 MOL      0.195974
    178 H79        -8.8100   -1.7470   -4.3040 h1        1 MOL      0.195974
    179 H80        -6.8850   -0.6010   -2.5110 hn        1 MOL      0.272255
    180 Ca1        -6.5730    4.3210    0.8040 Ca        1 MOL      1.737761
    181 O27        -6.0040    3.9070    3.3310 oh        1 MOL     -0.922927
    182 H81        -5.1680    3.4990    3.5850 ho        1 MOL      0.435516
    183 H82        -6.5150    3.9150    4.1420 ho        1 MOL      0.435516
    184 O28        -6.8260    2.7700   -1.3950 oh        1 MOL     -0.922927
    185 H83        -6.1330    2.4190   -1.9500 ho        1 MOL      0.435516
    186 H84        -7.6210    2.7020   -1.9320 ho        1 MOL      0.435516
    187 O29        -8.6480    4.9610   -0.7290 oh        1 MOL     -0.922927
    188 H85        -9.4460    5.4730   -0.6280 ho        1 MOL      0.435516
    189 H86        -8.8340    4.3570   -1.4530 ho        1 MOL      0.435516
    190 O30        -7.6390    6.4220    2.0940 oh        1 MOL     -0.922927
    191 H87        -8.1470    7.2120    1.9260 ho        1 MOL      0.435516
    192 H88        -7.7850    6.2340    3.0230 ho        1 MOL      0.435516
@<TRIPOS>BOND
     1    1    2 1   
     2    1    4 1   
     3    1    5 1   
     4    1    6 1   
     5    2    3 2   
     6    2    7 1   
     7    7    8 1   
     8    7   15 1   
     9    8    9 1   
    10    8   11 1   
    11    8   16 1   
    12    9   10 2   
    13    9   19 1   
    14   11   12 1   
    15   11   17 1   
    16   11   18 1   
    17   12   13 1   
    18   12   14 1   
    19   19   20 1   
    20   19   27 1   
    21   20   21 1   
    22   20   23 1   
    23   20   28 1   
    24   21   22 2   
    25   21   38 1   
    26   23   24 1   
    27   23   25 1   
    28   23   29 1   
    29   24   26 1   
    30   24   30 1   
    31   24   31 1   
    32   25   32 1   
    33   25   33 1   
    34   25   34 1   
    35   26   35 1   
    36   26   36 1   
    37   26   37 1   
    38   38   39 1   
    39   38   46 1   
    40   39   40 1   
    41   39   42 1   
    42   39   47 1   
    43   40   41 2   
    44   40   50 1   
    45   42   43 1   
    46   42   48 1   
    47   42   49 1   
    48   43   44 1   
    49   43   45 1   
    50   50   51 1   
    51   50   54 1   
    52   51   52 1   
    53   51   55 1   
    54   51   56 1   
    55   52   53 2   
    56   52   57 1   
    57   57   58 1   
    58   57   65 1   
    59   58   59 1   
    60   58   61 1   
    61   58   66 1   
    62   59   60 2   
    63   59   69 1   
    64   61   62 1   
    65   61   67 1   
    66   61   68 1   
    67   62   63 1   
    68   62   64 1   
    69   69   70 1   
    70   69   73 1   
    71   70   71 1   
    72   70   74 1   
    73   70   75 1   
    74   71   72 2   
    75   71   76 1   
    76   76   77 1   
    77   76   85 1   
    78   77   78 1   
    79   77   80 1   
    80   77   86 1   
    81   78   79 2   
    82   78   93 1   
    83   80   81 1   
    84   80   87 1   
    85   80   88 1   
    86   81   82 1   
    87   81   89 1   
    88   81   90 1   
    89   82   83 1   
    90   82   84 2   
    91   83   91 1   
    92   83   92 1   
    93   93   94 1   
    94   93  100 1   
    95   94   95 1   
    96   94   97 1   
    97   94  101 1   
    98   95   96 2   
    99   95  109 1   
   100   97   98 1   
   101   97   99 1   
   102   97  102 1   
   103   98  103 1   
   104   98  104 1   
   105   98  105 1   
   106   99  106 1   
   107   99  107 1   
   108   99  108 1   
   109  109  110 1   
   110  109  117 1   
   111  110  111 1   
   112  110  113 1   
   113  110  118 1   
   114  111  112 2   
   115  111  123 1   
   116  113  114 1   
   117  113  119 1   
   118  113  120 1   
   119  114  115 1   
   120  114  116 2   
   121  115  121 1   
   122  115  122 1   
   123  123  124 1   
   124  123  135 1   
   125  124  125 1   
   126  124  127 1   
   127  124  136 1   
   128  125  126 2   
   129  125  144 1   
   130  127  128 1   
   131  127  137 1   
   132  127  138 1   
   133  128  129 ar  
   134  128  130 ar  
   135  129  131 ar  
   136  129  139 1   
   137  130  132 ar  
   138  130  140 1   
   139  131  133 ar  
   140  131  141 1   
   141  132  133 ar  
   142  132  142 1   
   143  133  134 1   
   144  134  143 1   
   145  144  145 1   
   146  144  153 1   
   147  145  146 1   
   148  145  148 1   
   149  145  154 1   
   150  146  147 2   
   151  146  159 1   
   152  148  149 1   
   153  148  155 1   
   154  148  156 1   
   155  149  150 1   
   156  149  157 1   
   157  149  158 1   
   158  150  151 1   
   159  150  152 1   
   160  159  160 1   
   161  159  168 1   
   162  160  161 1   
   163  160  163 1   
   164  160  169 1   
   165  161  162 2   
   166  161  174 1   
   167  163  164 1   
   168  163  170 1   
   169  163  171 1   
   170  164  165 1   
   171  164  172 1   
   172  164  173 1   
   173  165  166 1   
   174  165  167 1   
   175  174  175 1   
   176  174  179 1   
   177  175  176 1   
   178  175  177 1   
   179  175  178 1   
   180  181  182 1   
   181  181  183 1   
   182  184  185 1   
   183  184  186 1   
   184  187  188 1   
   185  187  189 1   
   186  190  191 1   
   187  190  192 1   
@<TRIPOS>SUBSTRUCTURE
     1 MOL         1 TEMP              0 ****  ****    0 ROOT
