@<TRIPOS>MOLECULE
MOL
  198   191     1     0     0
SMALL
resp


@<TRIPOS>ATOM
      1 C1         -3.1860    2.1640    4.2090 c3        1 MOL     -0.455843
      2 C2         -4.1710    0.9590    4.1640 c         1 MOL      0.751321
      3 O1         -4.0040   -0.0660    4.7570 o         1 MOL     -0.604157
      4 H1         -3.7480    3.0870    4.3530 hc        1 MOL      0.124218
      5 H2         -2.4880    2.0320    5.0370 hc        1 MOL      0.124218
      6 H3         -2.6330    2.2180    3.2720 hc        1 MOL      0.124218
      7 N1         -5.2850    1.1500    3.4380 n         1 MOL     -0.710273
      8 C3         -6.2460    0.1050    3.1560 c3        1 MOL      0.448260
      9 C4         -5.9490   -0.6090    1.8300 c         1 MOL      0.362438
     10 O2         -5.0710   -0.2150    1.0830 o         1 MOL     -0.496834
     11 C5         -7.6450    0.6560    3.0890 c3        1 MOL     -0.487827
     12 C6         -7.8320    1.5720    1.8620 c         1 MOL      0.878423
     13 O3         -7.4420    2.7320    1.8130 o         1 MOL     -0.730613
     14 O4         -8.5840    1.1700    0.9320 o         1 MOL     -0.730613
     15 H4         -5.4490    2.0040    2.9250 hn        1 MOL      0.344298
     16 H5         -6.1990   -0.6730    3.9180 h1        1 MOL      0.021238
     17 H6         -7.9680    1.1780    3.9850 hc        1 MOL      0.098566
     18 H7         -8.2930   -0.2120    2.9120 hc        1 MOL      0.098566
     19 N2         -6.8090   -1.5760    1.4010 n         1 MOL     -0.616739
     20 C7         -6.6570   -2.3960    0.1570 c3        1 MOL      0.358520
     21 C8         -7.0400   -1.7180   -1.1720 c         1 MOL      0.468400
     22 O5         -7.3010   -2.4070   -2.0930 o         1 MOL     -0.526343
     23 C9         -7.3440   -3.7470    0.3300 c3        1 MOL     -0.082945
     24 C10        -6.6030   -4.7830    1.1920 c3        1 MOL     -0.049420
     25 C11        -5.2670   -5.3150    0.6220 c3        1 MOL      0.153094
     26 C12        -4.8340   -6.6490    1.2470 c3        1 MOL     -0.059581
     27 N3         -3.4520   -7.1660    0.8730 n4        1 MOL     -0.372506
     28 H8         -7.6480   -1.6830    1.9390 hn        1 MOL      0.300125
     29 H9         -5.6290   -2.6650   -0.0650 h1        1 MOL     -0.048985
     30 H10        -7.7210   -4.2000   -0.5840 hc        1 MOL      0.034756
     31 H11        -8.2270   -3.4410    0.9050 hc        1 MOL      0.034756
     32 H12        -7.2540   -5.6090    1.4710 hc        1 MOL      0.011398
     33 H13        -6.3630   -4.3330    2.1570 hc        1 MOL      0.011398
     34 H14        -4.5470   -4.4970    0.6870 hc        1 MOL      0.004945
     35 H15        -5.4170   -5.5040   -0.4370 hc        1 MOL      0.004945
     36 H16        -5.5600   -7.3750    0.8700 hx        1 MOL      0.077197
     37 H17        -4.9100   -6.5570    2.3300 hx        1 MOL      0.077197
     38 H18        -2.7870   -6.4130    0.9050 hn        1 MOL      0.324898
     39 H19        -3.1510   -7.8620    1.5470 hn        1 MOL      0.324898
     40 H20        -3.4870   -7.6230   -0.0310 hn        1 MOL      0.324898
     41 N4         -7.0320   -0.3640   -1.2460 n         1 MOL     -0.227779
     42 C13        -6.9860    0.4080   -2.4870 c3        1 MOL     -0.108794
     43 C14        -6.4690    1.8500   -2.2110 c         1 MOL      0.278025
     44 O6         -6.8090    2.4470   -1.2820 o         1 MOL     -0.402141
     45 C15        -8.4280    0.4150   -3.1740 c3        1 MOL     -0.109172
     46 C16        -9.6590    0.6720   -2.2750 c         1 MOL      0.562115
     47 O7        -10.4310   -0.2580   -2.0590 o         1 MOL     -0.647929
     48 O8         -9.9000    1.8260   -1.8770 o         1 MOL     -0.647929
     49 H21        -6.9480    0.1040   -0.3490 hn        1 MOL      0.277079
     50 H22        -6.2710   -0.0500   -3.1570 h1        1 MOL      0.077253
     51 H23        -8.6690   -0.5270   -3.6630 hc        1 MOL      0.059510
     52 H24        -8.4220    1.2260   -3.9030 hc        1 MOL      0.059510
     53 N5         -5.6060    2.4400   -3.0460 n         1 MOL     -0.209583
     54 C17        -5.2550    2.0070   -4.3910 c3        1 MOL     -0.317639
     55 C18        -4.0070    1.0860   -4.4730 c         1 MOL      0.677107
     56 O9         -3.6210    0.7080   -5.5900 o         1 MOL     -0.564069
     57 H25        -5.3050    3.3460   -2.7170 hn        1 MOL      0.226916
     58 H26        -5.0440    2.9410   -4.9080 h1        1 MOL      0.126224
     59 H27        -6.0780    1.4590   -4.8350 h1        1 MOL      0.126224
     60 N6         -3.4060    0.6500   -3.3580 n         1 MOL     -0.424134
     61 C19        -2.3730   -0.3830   -3.2160 c3        1 MOL     -0.036848
     62 C20        -2.8590   -1.5570   -2.3540 c         1 MOL      0.438099
     63 O10        -3.6110   -1.3500   -1.4150 o         1 MOL     -0.383236
     64 C21        -1.0790    0.2530   -2.6790 c3        1 MOL     -0.016932
     65 C22        -0.6140    1.5030   -3.5370 c         1 MOL      0.620007
     66 O11        -0.5120    1.2300   -4.7250 o         1 MOL     -0.661685
     67 O12        -0.3670    2.5920   -2.9180 o         1 MOL     -0.661685
     68 H28        -3.7660    1.1180   -2.5470 hn        1 MOL      0.278004
     69 H29        -2.0790   -0.7990   -4.1780 h1        1 MOL      0.084768
     70 H30        -0.2480   -0.4400   -2.6790 hc        1 MOL     -0.012330
     71 H31        -1.1360    0.5520   -1.6300 hc        1 MOL     -0.012330
     72 N7         -2.2660   -2.7010   -2.6320 n         1 MOL     -0.386903
     73 C23        -2.5890   -4.0000   -1.9370 c3        1 MOL      0.000385
     74 C24        -1.9650   -4.1990   -0.5420 c         1 MOL      0.537770
     75 O13        -1.6980   -5.3700   -0.1860 o         1 MOL     -0.653677
     76 H32        -1.8090   -2.7140   -3.5290 hn        1 MOL      0.292544
     77 H33        -2.2510   -4.7870   -2.6120 h1        1 MOL      0.060192
     78 H34        -3.6750   -4.0770   -1.8980 h1        1 MOL      0.060192
     79 N8         -1.6130   -3.1280    0.1630 n         1 MOL     -0.207023
     80 C25        -0.9020   -3.1430    1.4530 c3        1 MOL      0.044193
     81 C26         0.0240   -1.8970    1.5680 c         1 MOL      0.569705
     82 O14        -0.1590   -0.9880    0.7650 o         1 MOL     -0.389289
     83 C27        -1.8120   -3.1470    2.6180 c3        1 MOL      0.057315
     84 C28        -2.6390   -1.8680    2.7690 c3        1 MOL     -0.352075
     85 O15        -2.6370   -4.3390    2.6500 oh        1 MOL     -0.565198
     86 H35        -1.8520   -2.2470   -0.2680 hn        1 MOL      0.098982
     87 H36        -0.2770   -4.0270    1.5130 h1        1 MOL      0.058981
     88 H37        -1.2000   -3.2320    3.5080 h1        1 MOL      0.083069
     89 H38        -2.0950   -5.0510    2.9850 ho        1 MOL      0.363240
     90 H39        -3.4110   -2.0900    3.4990 hc        1 MOL      0.159287
     91 H40        -1.9770   -1.0170    2.9430 hc        1 MOL      0.159287
     92 H41        -3.1930   -1.6680    1.8490 hc        1 MOL      0.159287
     93 N9          0.9610   -1.8880    2.5210 n         1 MOL     -0.667959
     94 C29         1.5870   -0.6620    3.0550 c3        1 MOL     -0.060677
     95 C30         2.7010   -0.2320    2.0810 c         1 MOL      0.540251
     96 O16         3.5120    0.5990    2.4360 o         1 MOL     -0.510461
     97 C31         2.0180   -0.8820    4.5480 c3        1 MOL      0.164420
     98 C32         0.8310   -1.0200    5.5010 c3        1 MOL     -0.187576
     99 C33         2.9540    0.2400    5.1770 c3        1 MOL     -0.441726
    100 C34         1.3230   -1.9010    6.6020 c3        1 MOL      0.148003
    101 H42         1.0320   -2.6510    3.1790 hn        1 MOL      0.327265
    102 H43         0.8910    0.1740    2.9540 h1        1 MOL      0.121582
    103 H44         2.6860   -1.7450    4.5420 hc        1 MOL      0.056274
    104 H45         0.0190   -1.5230    4.9950 hc        1 MOL      0.056883
    105 H46         0.4170   -0.1460    6.0060 hc        1 MOL      0.056883
    106 H47         2.4760    1.2090    5.0340 hc        1 MOL      0.131565
    107 H48         3.1170    0.1300    6.2450 hc        1 MOL      0.131565
    108 H49         3.9440    0.1900    4.7180 hc        1 MOL      0.131565
    109 H50         1.5420   -2.8450    6.1060 hc        1 MOL     -0.039815
    110 H51         2.2200   -1.5240    7.0860 hc        1 MOL     -0.039815
    111 H52         0.5470   -2.1550    7.3230 hc        1 MOL     -0.039815
    112 N10         2.8650   -0.8460    0.9060 n         1 MOL     -0.261148
    113 C35         3.9870   -0.7780   -0.0580 c3        1 MOL     -0.239944
    114 C36         5.0480   -1.9130    0.2010 c         1 MOL      0.785952
    115 O17         4.6990   -2.9440    0.8200 o         1 MOL     -0.576065
    116 C37         3.4820   -0.7060   -1.4600 c3        1 MOL      0.367667
    117 C38         2.5100   -1.8050   -1.8010 c3        1 MOL     -0.300612
    118 O18         2.8730    0.6050   -1.5630 oh        1 MOL     -0.587433
    119 H53         2.1690   -1.5540    0.6750 hn        1 MOL      0.215625
    120 H54         4.4960    0.1860    0.0170 h1        1 MOL      0.113722
    121 H55         4.1810   -0.5460   -2.2800 h1        1 MOL      0.008417
    122 H56         3.4320    1.2300   -2.0200 ho        1 MOL      0.408353
    123 H57         1.6840   -1.8640   -1.1030 hc        1 MOL      0.078785
    124 H58         2.0310   -1.5960   -2.7610 hc        1 MOL      0.078785
    125 H59         3.0720   -2.7280   -1.9020 hc        1 MOL      0.078785
    126 N11         6.2770   -1.7750   -0.3140 n         1 MOL     -0.711065
    127 C39         7.4370   -2.6490   -0.0890 c3        1 MOL      0.015841
    128 C40         8.8030   -1.9710    0.0730 c         1 MOL      0.695278
    129 O19         9.6080   -2.4290    0.8440 o         1 MOL     -0.596162
    130 C41         7.5450   -3.6210   -1.2560 c3        1 MOL      0.152913
    131 C42         8.5160   -4.7410   -1.2060 c3        1 MOL     -0.358635
    132 O20         7.8350   -2.8840   -2.4520 oh        1 MOL     -0.590617
    133 H60         6.4450   -1.0400   -0.9860 hn        1 MOL      0.307231
    134 H61         7.2740   -3.1840    0.8450 h1        1 MOL      0.124361
    135 H62         6.5540   -4.0360   -1.4430 h1        1 MOL      0.089238
    136 H63         7.0660   -2.7660   -3.0160 ho        1 MOL      0.390557
    137 H64         8.3870   -5.4170   -0.3680 hc        1 MOL      0.108020
    138 H65         8.3720   -5.3160   -2.1240 hc        1 MOL      0.108020
    139 H66         9.5550   -4.4110   -1.1880 hc        1 MOL      0.108020
    140 N12         9.0820   -0.8140   -0.5760 n         1 MOL     -0.418961
    141 C43        10.3410    0.0210   -0.5700 c3        1 MOL     -0.009745
    142 C44         9.9310    1.4910   -0.6130 c         1 MOL      0.431825
    143 O21         8.8960    1.7830   -1.2590 o         1 MOL     -0.475446
    144 C45        11.1870   -0.2690   -1.8170 c3        1 MOL     -0.099336
    145 C46        11.9910   -1.6160   -1.4790 c3        1 MOL     -0.145324
    146 C47        13.2370   -1.8460   -2.3590 c3        1 MOL      0.028388
    147 C48        12.8630   -2.0620   -3.8100 c3        1 MOL      0.105560
    148 N13        13.9450   -2.4440   -4.7580 n4        1 MOL     -0.236784
    149 H67         8.3320   -0.4070   -1.1230 hn        1 MOL      0.242947
    150 H68        10.8860   -0.1750    0.3500 h1        1 MOL      0.118452
    151 H69        11.8330    0.5740   -2.0340 hc        1 MOL      0.070341
    152 H70        10.5010   -0.4530   -2.6450 hc        1 MOL      0.070341
    153 H71        11.2510   -2.4220   -1.4900 hc        1 MOL      0.080979
    154 H72        12.3660   -1.3960   -0.4830 hc        1 MOL      0.080979
    155 H73        13.7600   -2.7340   -2.0010 hc        1 MOL      0.017979
    156 H74        13.9340   -1.0160   -2.2610 hc        1 MOL      0.017979
    157 H75        12.3660   -1.1640   -4.1730 hx        1 MOL      0.045921
    158 H76        12.1090   -2.8420   -3.8500 hx        1 MOL      0.045921
    159 H77        13.5400   -2.4830   -5.6780 hn        1 MOL      0.222383
    160 H78        14.7080   -1.7930   -4.8000 hn        1 MOL      0.222383
    161 H79        14.2740   -3.3950   -4.6330 hn        1 MOL      0.222383
    162 N14        10.5360    2.4460    0.1360 n         1 MOL     -0.431419
    163 C49        10.0780    3.8760    0.1820 c3        1 MOL      0.146539
    164 C50         8.5290    4.0040    0.5010 c         1 MOL      0.384995
    165 O22         7.8150    4.6060   -0.3050 o         1 MOL     -0.491734
    166 C51        10.9950    4.8160    1.0770 c3        1 MOL     -0.048745
    167 C52        12.4650    4.9030    0.6980 c3        1 MOL     -0.244080
    168 C53        13.0370    5.9360    1.5930 c         1 MOL      0.672650
    169 O23        12.9150    7.1760    1.4180 o         1 MOL     -0.639670
    170 O24        13.5610    5.5090    2.6790 o         1 MOL     -0.639670
    171 H80        11.2960    2.1020    0.7120 hn        1 MOL      0.276043
    172 H81        10.1890    4.2430   -0.8360 h1        1 MOL      0.066070
    173 H82        10.8720    4.5550    2.1360 hc        1 MOL      0.074168
    174 H83        10.4800    5.7390    0.8180 hc        1 MOL      0.074168
    175 H84        12.6120    5.1420   -0.3650 hc        1 MOL      0.040087
    176 H85        12.9430    3.9340    0.8410 hc        1 MOL      0.040087
    177 N15         7.9040    3.3710    1.5840 n         1 MOL     -0.370507
    178 C54         8.6170    3.0070    2.8740 c3        1 MOL     -0.069137
    179 H86         9.2290    2.1190    2.7120 h1        1 MOL      0.060761
    180 H87         9.2540    3.8350    3.1840 h1        1 MOL      0.060761
    181 H88         7.8810    2.8030    3.6520 h1        1 MOL      0.060761
    182 H89         6.8890    3.3340    1.5310 hn        1 MOL      0.295769
    183 Ca1        -9.0330    3.5640   -0.2540 Ca        1 MOL      1.581146
    184 O25        -6.6630    5.3960   -0.3730 oh        1 MOL     -0.769649
    185 H90        -5.7040    5.3190   -0.4430 ho        1 MOL      0.390634
    186 H91        -6.8830    6.1540   -0.9070 ho        1 MOL      0.390634
    187 O26        -9.4710    5.6510    1.4960 oh        1 MOL     -0.769649
    188 H92       -10.2620    6.1570    1.7240 ho        1 MOL      0.390634
    189 H93        -8.7500    6.2300    1.7530 ho        1 MOL      0.390634
    190 O27       -10.9870    3.0600    1.4390 oh        1 MOL     -0.769649
    191 H94       -10.6960    2.6490    2.2460 ho        1 MOL      0.390634
    192 H95       -11.9440    3.0250    1.4790 ho        1 MOL      0.390634
    193 O28        -8.5580    4.3370   -2.7000 oh        1 MOL     -0.769649
    194 H96        -8.8990    4.1540   -3.5800 ho        1 MOL      0.390634
    195 H97        -7.9390    5.0660   -2.8320 ho        1 MOL      0.390634
    196 O29       -11.1320    5.0980   -1.0480 oh        1 MOL     -0.769649
    197 H98       -11.6390    5.8380   -0.7010 ho        1 MOL      0.390634
    198 H99       -11.0890    5.2590   -1.9850 ho        1 MOL      0.390634
@<TRIPOS>BOND
     1    1    2 1   
     2    1    4 1   
     3    1    5 1   
     4    1    6 1   
     5    2    3 2   
     6    2    7 1   
     7    7    8 1   
     8    7   15 1   
     9    8    9 1   
    10    8   11 1   
    11    8   16 1   
    12    9   10 2   
    13    9   19 1   
    14   11   12 1   
    15   11   17 1   
    16   11   18 1   
    17   12   13 1   
    18   12   14 1   
    19   19   20 1   
    20   19   28 1   
    21   20   21 1   
    22   20   23 1   
    23   20   29 1   
    24   21   22 2   
    25   21   41 1   
    26   23   24 1   
    27   23   30 1   
    28   23   31 1   
    29   24   25 1   
    30   24   32 1   
    31   24   33 1   
    32   25   26 1   
    33   25   34 1   
    34   25   35 1   
    35   26   27 1   
    36   26   36 1   
    37   26   37 1   
    38   27   38 1   
    39   27   39 1   
    40   27   40 1   
    41   41   42 1   
    42   41   49 1   
    43   42   43 1   
    44   42   45 1   
    45   42   50 1   
    46   43   44 2   
    47   43   53 1   
    48   45   46 1   
    49   45   51 1   
    50   45   52 1   
    51   46   47 1   
    52   46   48 1   
    53   53   54 1   
    54   53   57 1   
    55   54   55 1   
    56   54   58 1   
    57   54   59 1   
    58   55   56 2   
    59   55   60 1   
    60   60   61 1   
    61   60   68 1   
    62   61   62 1   
    63   61   64 1   
    64   61   69 1   
    65   62   63 2   
    66   62   72 1   
    67   64   65 1   
    68   64   70 1   
    69   64   71 1   
    70   65   66 1   
    71   65   67 1   
    72   72   73 1   
    73   72   76 1   
    74   73   74 1   
    75   73   77 1   
    76   73   78 1   
    77   74   75 2   
    78   74   79 1   
    79   79   80 1   
    80   79   86 1   
    81   80   81 1   
    82   80   83 1   
    83   80   87 1   
    84   81   82 2   
    85   81   93 1   
    86   83   84 1   
    87   83   85 1   
    88   83   88 1   
    89   84   90 1   
    90   84   91 1   
    91   84   92 1   
    92   85   89 1   
    93   93   94 1   
    94   93  101 1   
    95   94   95 1   
    96   94   97 1   
    97   94  102 1   
    98   95   96 2   
    99   95  112 1   
   100   97   98 1   
   101   97   99 1   
   102   97  103 1   
   103   98  100 1   
   104   98  104 1   
   105   98  105 1   
   106   99  106 1   
   107   99  107 1   
   108   99  108 1   
   109  100  109 1   
   110  100  110 1   
   111  100  111 1   
   112  112  113 1   
   113  112  119 1   
   114  113  114 1   
   115  113  116 1   
   116  113  120 1   
   117  114  115 2   
   118  114  126 1   
   119  116  117 1   
   120  116  118 1   
   121  116  121 1   
   122  117  123 1   
   123  117  124 1   
   124  117  125 1   
   125  118  122 1   
   126  126  127 1   
   127  126  133 1   
   128  127  128 1   
   129  127  130 1   
   130  127  134 1   
   131  128  129 2   
   132  128  140 1   
   133  130  131 1   
   134  130  132 1   
   135  130  135 1   
   136  131  137 1   
   137  131  138 1   
   138  131  139 1   
   139  132  136 1   
   140  140  141 1   
   141  140  149 1   
   142  141  142 1   
   143  141  144 1   
   144  141  150 1   
   145  142  143 2   
   146  142  162 1   
   147  144  145 1   
   148  144  151 1   
   149  144  152 1   
   150  145  146 1   
   151  145  153 1   
   152  145  154 1   
   153  146  147 1   
   154  146  155 1   
   155  146  156 1   
   156  147  148 1   
   157  147  157 1   
   158  147  158 1   
   159  148  159 1   
   160  148  160 1   
   161  148  161 1   
   162  162  163 1   
   163  162  171 1   
   164  163  164 1   
   165  163  166 1   
   166  163  172 1   
   167  164  165 2   
   168  164  177 1   
   169  166  167 1   
   170  166  173 1   
   171  166  174 1   
   172  167  168 1   
   173  167  175 1   
   174  167  176 1   
   175  168  169 1   
   176  168  170 1   
   177  177  178 1   
   178  177  182 1   
   179  178  179 1   
   180  178  180 1   
   181  178  181 1   
   182  184  185 1   
   183  184  186 1   
   184  187  188 1   
   185  187  189 1   
   186  190  191 1   
   187  190  192 1   
   188  193  194 1   
   189  193  195 1   
   190  196  197 1   
   191  196  198 1   
@<TRIPOS>SUBSTRUCTURE
     1 MOL         1 TEMP              0 ****  ****    0 ROOT
