@<TRIPOS>MOLECULE
MOL
  185   180     1     0     0
SMALL
resp


@<TRIPOS>ATOM
      1 C1          5.5170    1.9810    5.4050 c3        1 MOL     -0.234398
      2 C2          6.2490    1.0680    4.4070 c         1 MOL      0.570809
      3 O1          6.0970   -0.1560    4.4690 o         1 MOL     -0.550005
      4 H1          6.2420    2.6160    5.9150 hc        1 MOL      0.061478
      5 H2          4.8010    2.6050    4.8710 hc        1 MOL      0.061478
      6 H3          4.9900    1.3700    6.1380 hc        1 MOL      0.061478
      7 N1          7.0950    1.6750    3.5630 n         1 MOL     -0.344852
      8 C3          8.0360    0.8750    2.7980 c3        1 MOL      0.085226
      9 C4          7.3260    0.1240    1.6960 c         1 MOL      0.645682
     10 O2          6.2260    0.4700    1.2190 o         1 MOL     -0.490208
     11 C5          9.1490    1.7590    2.2020 c3        1 MOL     -0.396772
     12 C6          8.7480    3.0150    1.4070 c         1 MOL      0.817561
     13 O3          9.0220    3.0680    0.1850 o         1 MOL     -0.709403
     14 O4          8.1550    3.9590    1.9170 o         1 MOL     -0.709403
     15 H4          7.1150    2.6740    3.4040 hn        1 MOL      0.228765
     16 H5          8.4560    0.1190    3.4640 h1        1 MOL      0.032672
     17 H6          9.7990    1.1670    1.5670 hc        1 MOL      0.066726
     18 H7          9.7240    2.1010    3.0640 hc        1 MOL      0.066726
     19 N2          8.0080   -0.9120    1.1840 n         1 MOL     -0.654233
     20 C7          7.5460   -1.7250    0.0500 c3        1 MOL      0.153826
     21 C8          6.1730   -2.3380    0.4720 c         1 MOL      0.518101
     22 O5          6.0490   -3.1790    1.4000 o         1 MOL     -0.553578
     23 C9          8.6470   -2.6760   -0.3960 c3        1 MOL     -0.186170
     24 C10         9.4570   -2.1060   -1.5610 c3        1 MOL      0.020980
     25 C11        10.7030   -3.0230   -1.8530 c3        1 MOL      0.017735
     26 C12        11.5040   -2.4600   -2.9510 c3        1 MOL     -0.158846
     27 N3         12.1990   -1.2270   -2.7020 n4        1 MOL     -0.263936
     28 H8          8.9460   -1.0600    1.5350 hn        1 MOL      0.363023
     29 H9          7.2930   -1.1280   -0.8190 h1        1 MOL      0.038223
     30 H10         8.1880   -3.5960   -0.7580 hc        1 MOL      0.063964
     31 H11         9.2270   -2.8170    0.5110 hc        1 MOL      0.063964
     32 H12         9.7680   -1.1420   -1.1590 hc        1 MOL      0.029204
     33 H13         8.7370   -2.0590   -2.3740 hc        1 MOL      0.029204
     34 H14        10.5680   -4.0760   -2.1300 hc        1 MOL      0.050708
     35 H15        11.4060   -3.0740   -1.0140 hc        1 MOL      0.050708
     36 H16        10.8240   -2.2670   -3.7770 hx        1 MOL      0.137998
     37 H17        12.2170   -3.1760   -3.3680 hx        1 MOL      0.137998
     38 H18        12.8690   -0.8700   -3.3690 hn        1 MOL      0.307422
     39 H19        11.6470   -0.4090   -2.5060 hn        1 MOL      0.307422
     40 H20        12.7200   -1.3090   -1.8360 hn        1 MOL      0.307422
     41 N4          5.1880   -2.0330   -0.3070 n         1 MOL     -0.363277
     42 C13         3.7690   -2.3870   -0.2120 c3        1 MOL      0.005573
     43 C14         3.2210   -3.0800   -1.4510 c         1 MOL      0.400629
     44 O6          3.5760   -2.6290   -2.5250 o         1 MOL     -0.474396
     45 C15         2.9890   -1.0880    0.2000 c3        1 MOL      0.239340
     46 C16         1.5120   -1.3900    0.2960 c         1 MOL      0.078112
     47 O7          0.7900   -1.4260   -0.6960 o         1 MOL     -0.542694
     48 O8          1.0420   -1.5990    1.4460 o         1 MOL     -0.542694
     49 H21         5.4760   -1.4560   -1.0840 hn        1 MOL      0.214116
     50 H22         3.5780   -3.0770    0.6170 h1        1 MOL      0.063553
     51 H23         3.1670   -0.2420   -0.4570 hc        1 MOL      0.030611
     52 H24         3.4170   -0.7210    1.1300 hc        1 MOL      0.030611
     53 N5          2.3130   -4.0340   -1.3060 n         1 MOL     -0.248466
     54 C17         1.6190   -4.8090   -2.3110 c3        1 MOL     -0.268547
     55 C18         0.7650   -4.0620   -3.3170 c         1 MOL      0.610774
     56 O9          0.4390   -4.6790   -4.3560 o         1 MOL     -0.572142
     57 H25         2.1340   -4.3610   -0.3670 hn        1 MOL      0.280314
     58 H26         1.0150   -5.4530   -1.6700 h1        1 MOL      0.117929
     59 H27         2.3420   -5.4590   -2.8120 h1        1 MOL      0.117929
     60 N6          0.4540   -2.8040   -3.0370 n         1 MOL     -0.475375
     61 C19        -0.2190   -1.8360   -3.9340 c3        1 MOL      0.153217
     62 C20         0.3520   -0.3880   -3.8050 c         1 MOL      0.352556
     63 O10        -0.3280    0.5760   -4.1580 o         1 MOL     -0.521535
     64 C21        -1.7540   -1.8860   -3.8600 c3        1 MOL     -0.536124
     65 C22        -2.4440   -1.2270   -2.6780 c         1 MOL      0.914926
     66 N7         -3.5320   -0.4790   -2.9360 n         1 MOL     -0.824903
     67 O11        -2.0870   -1.3520   -1.5730 o         1 MOL     -0.808734
     68 H28         0.5610   -2.4840   -2.0830 hn        1 MOL      0.519357
     69 H29         0.0390   -2.1440   -4.9540 h1        1 MOL      0.089158
     70 H30        -2.0090   -2.9420   -3.8670 hc        1 MOL      0.152539
     71 H31        -2.0980   -1.3360   -4.7360 hc        1 MOL      0.152539
     72 H32        -3.7680   -0.1770   -3.8720 hn        1 MOL      0.364411
     73 H33        -3.9080    0.0400   -2.1450 hn        1 MOL      0.364411
     74 N8          1.6180   -0.3280   -3.3820 n         1 MOL     -0.011904
     75 C23         2.4830    0.8040   -3.3410 c3        1 MOL     -0.469501
     76 C24         2.0240    1.8520   -2.2660 c         1 MOL      0.617323
     77 O12         2.3020    3.0080   -2.3790 o         1 MOL     -0.517074
     78 H34         2.0160   -1.2370   -3.1490 hn        1 MOL      0.045385
     79 H35         2.4340    1.1510   -4.3770 h1        1 MOL      0.181483
     80 H36         3.4460    0.3950   -3.0570 h1        1 MOL      0.181483
     81 N9          1.1610    1.4980   -1.3360 n         1 MOL     -0.284401
     82 C25         0.5230    2.4250   -0.4060 c3        1 MOL      0.010761
     83 C26        -0.8820    1.9410    0.0020 c         1 MOL      0.134082
     84 O13        -1.1340    0.7540    0.1800 o         1 MOL     -0.245470
     85 C27         1.4170    2.5420    0.9110 c3        1 MOL     -0.075912
     86 C28         2.7400    3.2490    0.7880 ca        1 MOL      0.082780
     87 C29         2.7430    4.5210    0.1090 ca        1 MOL     -0.279353
     88 C30         3.9260    2.8240    1.4170 ca        1 MOL     -0.279353
     89 C31         3.9480    5.2310    0.0240 ca        1 MOL     -0.210301
     90 C32         5.1650    3.4460    1.2900 ca        1 MOL     -0.210301
     91 C33         5.1540    4.6870    0.5680 ca        1 MOL      0.419486
     92 O14         6.3390    5.3270    0.5690 oh        1 MOL     -0.628356
     93 H37         0.8230    0.5440   -1.3340 hn        1 MOL      0.246788
     94 H38         0.4070    3.4340   -0.8120 h1        1 MOL      0.073851
     95 H39         1.6560    1.5740    1.3600 hc        1 MOL      0.059305
     96 H40         0.9130    3.0970    1.7020 hc        1 MOL      0.059305
     97 H41         1.8520    4.9340   -0.3410 ha        1 MOL      0.145707
     98 H42         3.8560    1.8470    1.8770 ha        1 MOL      0.145707
     99 H43         3.9880    6.2350   -0.3990 ha        1 MOL      0.126274
    100 H44         6.0670    3.0210    1.7010 ha        1 MOL      0.126274
    101 H45         7.0230    4.8350    1.0270 ho        1 MOL      0.473949
    102 N10        -1.8740    2.8840    0.0710 n         1 MOL     -0.138977
    103 C34        -3.2060    2.4870    0.4920 c3        1 MOL     -0.064266
    104 C35        -4.0450    2.1170   -0.7530 c         1 MOL      0.329423
    105 O15        -4.6650    1.0950   -0.6910 o         1 MOL     -0.244056
    106 C36        -3.7190    3.7160    1.3600 c3        1 MOL      0.114120
    107 C37        -2.7120    4.0050    2.5070 c3        1 MOL      0.019807
    108 C38        -5.0590    3.4110    1.8610 c3        1 MOL     -0.361557
    109 C39        -2.4190    2.9560    3.5180 c3        1 MOL     -0.111116
    110 H46        -1.7560    3.8520   -0.1970 hn        1 MOL      0.230446
    111 H47        -3.1650    1.5960    1.1240 h1        1 MOL      0.026520
    112 H48        -3.9060    4.5810    0.7200 hc        1 MOL      0.004154
    113 H49        -3.0550    4.9410    2.9450 hc        1 MOL     -0.005665
    114 H50        -1.7540    4.2030    2.0250 hc        1 MOL     -0.005665
    115 H51        -5.1590    2.3740    2.1710 hc        1 MOL      0.098929
    116 H52        -5.2250    3.9810    2.7800 hc        1 MOL      0.098929
    117 H53        -5.8210    3.6100    1.1030 hc        1 MOL      0.098929
    118 H54        -3.3670    2.4590    3.7330 hc        1 MOL      0.043014
    119 H55        -1.6650    2.2090    3.2580 hc        1 MOL      0.043014
    120 H56        -2.0860    3.2860    4.5080 hc        1 MOL      0.043014
    121 N11        -3.9390    2.9610   -1.8500 n         1 MOL     -0.329612
    122 C40        -4.6460    2.8450   -3.1840 c3        1 MOL     -0.022212
    123 C41        -6.1290    2.4470   -2.9930 c         1 MOL      0.345386
    124 O16        -6.6750    1.6630   -3.8120 o         1 MOL     -0.473512
    125 C42        -4.5740    4.1780   -3.9450 c3        1 MOL      0.265374
    126 O17        -3.2260    4.7700   -3.9150 oh        1 MOL     -0.591859
    127 H57        -3.2510    3.6910   -1.8080 hn        1 MOL      0.202350
    128 H58        -4.2600    1.9750   -3.7120 h1        1 MOL      0.058536
    129 H59        -5.2280    4.9110   -3.4670 h1        1 MOL      0.033874
    130 H60        -4.9280    4.0460   -4.9600 h1        1 MOL      0.033874
    131 H61        -2.5780    4.1120   -4.1480 ho        1 MOL      0.400644
    132 N12        -6.7220    2.9310   -1.8640 n         1 MOL     -0.320121
    133 C43        -8.1200    2.7140   -1.3880 c3        1 MOL      0.074646
    134 C44        -8.3470    1.2470   -1.0610 c         1 MOL      0.378760
    135 O18        -9.5370    0.8610   -0.8990 o         1 MOL     -0.524577
    136 C45        -9.1130    3.3190   -2.4920 c3        1 MOL     -0.473273
    137 H62        -6.1350    3.6010   -1.3940 hn        1 MOL      0.262353
    138 H63        -8.0970    3.2550   -0.4380 h1        1 MOL      0.095452
    139 H64       -10.1740    3.2190   -2.2780 hc        1 MOL      0.158982
    140 H65        -8.8030    4.3170   -2.7960 hc        1 MOL      0.158982
    141 H66        -9.0660    2.6620   -3.3560 hc        1 MOL      0.158982
    142 N13        -7.3320    0.3430   -1.0160 n         1 MOL     -0.147898
    143 C46        -7.5440   -1.0490   -0.7160 c3        1 MOL      0.230699
    144 C47        -7.3330   -1.2590    0.8030 c         1 MOL      0.237702
    145 O19        -6.7010   -0.4890    1.5610 o         1 MOL     -0.458611
    146 C48        -6.7040   -1.8360   -1.6470 c3        1 MOL     -0.060417
    147 H67        -6.4010    0.7350   -0.9670 hn        1 MOL      0.012238
    148 H68        -8.5600   -1.3050   -1.0200 h1        1 MOL      0.026770
    149 H69        -6.8640   -1.4860   -2.6680 hc        1 MOL      0.018776
    150 H70        -5.6280   -1.7330   -1.4950 hc        1 MOL      0.018776
    151 H71        -7.0580   -2.8700   -1.6400 hc        1 MOL      0.018776
    152 N14        -7.8300   -2.3880    1.2950 n         1 MOL     -0.287325
    153 C49        -7.5400   -2.8970    2.6980 c3        1 MOL      0.122199
    154 C50        -7.9690   -1.9820    3.9030 c         1 MOL      0.237903
    155 O20        -7.3480   -2.0600    4.9730 o         1 MOL     -0.477357
    156 C51        -6.0590   -3.2550    3.0050 c3        1 MOL      0.048243
    157 C52        -5.4200   -4.2560    2.0050 c3        1 MOL     -0.235950
    158 C53        -3.9230   -4.2250    1.9880 c         1 MOL      0.739662
    159 O21        -3.4020   -3.5790    1.0530 o         1 MOL     -0.718640
    160 O22        -3.3220   -4.6890    2.9630 o         1 MOL     -0.718640
    161 H72        -8.6070   -2.7570    0.7540 hn        1 MOL      0.242235
    162 H73        -8.1400   -3.7940    2.7720 h1        1 MOL      0.032862
    163 H74        -5.9420   -3.6610    4.0090 hc        1 MOL      0.057234
    164 H75        -5.5070   -2.3170    3.0310 hc        1 MOL      0.057234
    165 H76        -5.8060   -4.0590    1.0050 hc        1 MOL      0.019098
    166 H77        -5.8280   -5.2350    2.2510 hc        1 MOL      0.019098
    167 N15        -8.8330   -1.0630    3.5980 n         1 MOL     -0.101487
    168 C54        -9.2200    0.0560    4.4330 c3        1 MOL     -0.071644
    169 H78        -8.6670    0.0180    5.3710 h1        1 MOL      0.063629
    170 H79        -8.9950    0.9900    3.9170 h1        1 MOL      0.063629
    171 H80       -10.2890    0.0030    4.6400 h1        1 MOL      0.063629
    172 H81        -9.3430   -1.2770    2.7530 hn        1 MOL      0.171151
    173 Ca1        -1.4070   -2.0320    0.9250 Ca        1 MOL      1.770930
    174 O23        -3.9560   -0.6040    1.5360 oh        1 MOL     -0.874733
    175 H82        -4.0510   -0.1080    0.7220 ho        1 MOL      0.419496
    176 H83        -4.8410   -0.9120    1.7360 ho        1 MOL      0.419496
    177 O24        -0.8340   -4.4580   -0.1380 oh        1 MOL     -0.874733
    178 H84        -0.8100   -5.1360    0.5330 ho        1 MOL      0.419496
    179 H85        -1.1690   -4.8950   -0.9110 ho        1 MOL      0.419496
    180 O25        -1.4210   -0.6020    3.2750 oh        1 MOL     -0.874733
    181 H86        -0.9840   -0.2610    4.0490 ho        1 MOL      0.419496
    182 H87        -2.3520   -0.5730    3.4930 ho        1 MOL      0.419496
    183 O26        -1.0980   -3.2190    3.3760 oh        1 MOL     -0.874733
    184 H88        -0.6820   -2.9990    4.2120 ho        1 MOL      0.419496
    185 H89        -1.8850   -3.7110    3.6310 ho        1 MOL      0.419496
@<TRIPOS>BOND
     1    1    2 1   
     2    1    4 1   
     3    1    5 1   
     4    1    6 1   
     5    2    3 2   
     6    2    7 1   
     7    7    8 1   
     8    7   15 1   
     9    8    9 1   
    10    8   11 1   
    11    8   16 1   
    12    9   10 2   
    13    9   19 1   
    14   11   12 1   
    15   11   17 1   
    16   11   18 1   
    17   12   13 1   
    18   12   14 1   
    19   19   20 1   
    20   19   28 1   
    21   20   21 1   
    22   20   23 1   
    23   20   29 1   
    24   21   22 2   
    25   21   41 1   
    26   23   24 1   
    27   23   30 1   
    28   23   31 1   
    29   24   25 1   
    30   24   32 1   
    31   24   33 1   
    32   25   26 1   
    33   25   34 1   
    34   25   35 1   
    35   26   27 1   
    36   26   36 1   
    37   26   37 1   
    38   27   38 1   
    39   27   39 1   
    40   27   40 1   
    41   41   42 1   
    42   41   49 1   
    43   42   43 1   
    44   42   45 1   
    45   42   50 1   
    46   43   44 2   
    47   43   53 1   
    48   45   46 1   
    49   45   51 1   
    50   45   52 1   
    51   46   47 1   
    52   46   48 1   
    53   53   54 1   
    54   53   57 1   
    55   54   55 1   
    56   54   58 1   
    57   54   59 1   
    58   55   56 2   
    59   55   60 1   
    60   60   61 1   
    61   60   68 1   
    62   61   62 1   
    63   61   64 1   
    64   61   69 1   
    65   62   63 2   
    66   62   74 1   
    67   64   65 1   
    68   64   70 1   
    69   64   71 1   
    70   65   66 1   
    71   65   67 2   
    72   66   72 1   
    73   66   73 1   
    74   74   75 1   
    75   74   78 1   
    76   75   76 1   
    77   75   79 1   
    78   75   80 1   
    79   76   77 2   
    80   76   81 1   
    81   81   82 1   
    82   81   93 1   
    83   82   83 1   
    84   82   85 1   
    85   82   94 1   
    86   83   84 2   
    87   83  102 1   
    88   85   86 1   
    89   85   95 1   
    90   85   96 1   
    91   86   87 ar  
    92   86   88 ar  
    93   87   89 ar  
    94   87   97 1   
    95   88   90 ar  
    96   88   98 1   
    97   89   91 ar  
    98   89   99 1   
    99   90   91 ar  
   100   90  100 1   
   101   91   92 1   
   102   92  101 1   
   103  102  103 1   
   104  102  110 1   
   105  103  104 1   
   106  103  106 1   
   107  103  111 1   
   108  104  105 2   
   109  104  121 1   
   110  106  107 1   
   111  106  108 1   
   112  106  112 1   
   113  107  109 1   
   114  107  113 1   
   115  107  114 1   
   116  108  115 1   
   117  108  116 1   
   118  108  117 1   
   119  109  118 1   
   120  109  119 1   
   121  109  120 1   
   122  121  122 1   
   123  121  127 1   
   124  122  123 1   
   125  122  125 1   
   126  122  128 1   
   127  123  124 2   
   128  123  132 1   
   129  125  126 1   
   130  125  129 1   
   131  125  130 1   
   132  126  131 1   
   133  132  133 1   
   134  132  137 1   
   135  133  134 1   
   136  133  136 1   
   137  133  138 1   
   138  134  135 2   
   139  134  142 1   
   140  136  139 1   
   141  136  140 1   
   142  136  141 1   
   143  142  143 1   
   144  142  147 1   
   145  143  144 1   
   146  143  146 1   
   147  143  148 1   
   148  144  145 2   
   149  144  152 1   
   150  146  149 1   
   151  146  150 1   
   152  146  151 1   
   153  152  153 1   
   154  152  161 1   
   155  153  154 1   
   156  153  156 1   
   157  153  162 1   
   158  154  155 2   
   159  154  167 1   
   160  156  157 1   
   161  156  163 1   
   162  156  164 1   
   163  157  158 1   
   164  157  165 1   
   165  157  166 1   
   166  158  159 1   
   167  158  160 1   
   168  167  168 1   
   169  167  172 1   
   170  168  169 1   
   171  168  170 1   
   172  168  171 1   
   173  174  175 1   
   174  174  176 1   
   175  177  178 1   
   176  177  179 1   
   177  180  181 1   
   178  180  182 1   
   179  183  184 1   
   180  183  185 1   
@<TRIPOS>SUBSTRUCTURE
     1 MOL         1 TEMP              0 ****  ****    0 ROOT
