@<TRIPOS>MOLECULE
MOL
  195   189     1     0     0
SMALL
resp


@<TRIPOS>ATOM
      1 C1         11.1040    5.7870   -3.2130 c3        1 MOL     -0.634383
      2 C2         11.0000    4.5300   -2.3310 c         1 MOL      0.670429
      3 O1         11.7920    3.5680   -2.4270 o         1 MOL     -0.609063
      4 H1         10.6740    5.5790   -4.1920 hc        1 MOL      0.172955
      5 H2         10.5600    6.6070   -2.7440 hc        1 MOL      0.172955
      6 H3         12.1520    6.0640   -3.3280 hc        1 MOL      0.172955
      7 N1         10.2190    4.6210   -1.2830 n         1 MOL      0.013015
      8 C3         10.1670    3.6360   -0.2400 c3        1 MOL     -0.758576
      9 C4          9.2100    2.4300   -0.6270 c         1 MOL      0.474838
     10 O2          8.0430    2.5530   -1.0850 o         1 MOL     -0.602045
     11 C5          9.7290    4.3470    1.0760 c3        1 MOL      0.087092
     12 C6          8.4970    5.2560    0.9660 c         1 MOL      0.805925
     13 O3          7.5570    5.1000    0.1160 o         1 MOL     -0.706415
     14 O4          8.4920    6.2620    1.6580 o         1 MOL     -0.706415
     15 H4          9.5730    5.3980   -1.1520 hn        1 MOL      0.098875
     16 H5         11.1850    3.3150   -0.0140 h1        1 MOL      0.246529
     17 H6         10.5060    4.9640    1.5400 hc        1 MOL      0.029762
     18 H7          9.4470    3.5150    1.7110 hc        1 MOL      0.029762
     19 N2          9.5740    1.2470   -0.0890 n         1 MOL     -0.018511
     20 C7          8.8360    0.0390   -0.4180 c3        1 MOL     -0.310069
     21 C8          7.5700   -0.1830    0.4060 c         1 MOL      0.491749
     22 O5          6.5940   -0.7270   -0.0660 o         1 MOL     -0.521575
     23 C9          9.7770   -1.1790   -0.2730 c3        1 MOL     -0.088903
     24 C10        10.8820   -1.0990   -1.2960 c3        1 MOL     -0.113063
     25 C11        11.8910   -2.1060   -1.0390 c3        1 MOL      0.084118
     26 C12        12.8040   -2.2110   -2.2910 c3        1 MOL      0.070191
     27 N3         14.1350   -2.8100   -2.0050 n4        1 MOL     -0.150581
     28 H8         10.4900    1.1630    0.3250 hn        1 MOL      0.234676
     29 H9          8.4370    0.0410   -1.4340 h1        1 MOL      0.157192
     30 H10         9.2970   -2.1490   -0.4240 hc        1 MOL      0.078741
     31 H11        10.1160   -1.2240    0.7630 hc        1 MOL      0.078741
     32 H12        11.3560   -0.1210   -1.3780 hc        1 MOL      0.053143
     33 H13        10.3930   -1.3730   -2.2310 hc        1 MOL      0.053143
     34 H14        11.4980   -3.1050   -0.8300 hc        1 MOL      0.006464
     35 H15        12.4780   -1.6860   -0.2290 hc        1 MOL      0.006464
     36 H16        12.9770   -1.2550   -2.7830 hx        1 MOL      0.055672
     37 H17        12.3830   -2.9150   -3.0140 hx        1 MOL      0.055672
     38 H18        14.6490   -2.9810   -2.8570 hn        1 MOL      0.205586
     39 H19        14.6470   -2.1310   -1.4480 hn        1 MOL      0.205586
     40 H20        14.1940   -3.6470   -1.4410 hn        1 MOL      0.205586
     41 N4          7.5880    0.2410    1.6500 n         1 MOL     -0.205510
     42 C13         6.4220    0.4130    2.5500 c3        1 MOL     -0.381220
     43 C14         5.2070    1.0470    1.8860 c         1 MOL      0.828296
     44 O6          5.3610    1.9280    1.0610 o         1 MOL     -0.686235
     45 C15         6.8750    1.3000    3.7010 c3        1 MOL     -0.126166
     46 C16         5.7420    1.5960    4.7120 c         1 MOL      0.623484
     47 O7          5.1490    2.7150    4.7210 o         1 MOL     -0.633045
     48 O8          5.4520    0.7070    5.5360 o         1 MOL     -0.633045
     49 H21         8.5240    0.4670    1.9740 hn        1 MOL      0.240793
     50 H22         6.1980   -0.5520    2.9990 h1        1 MOL      0.219960
     51 H23         7.2120    2.2620    3.3060 hc        1 MOL      0.028829
     52 H24         7.7470    0.8500    4.1780 hc        1 MOL      0.028829
     53 N5          3.9920    0.5120    2.1160 n         1 MOL     -0.437976
     54 C17         3.6460   -0.7530    2.8480 c3        1 MOL     -0.144549
     55 C18         3.8350   -1.9920    2.0880 c         1 MOL      0.495676
     56 O9          3.2580   -2.0830    1.0190 o         1 MOL     -0.513422
     57 H25         3.2070    1.0140    1.7240 hn        1 MOL      0.307546
     58 H26         2.6300   -0.5140    3.1620 h1        1 MOL      0.106518
     59 H27         4.2490   -0.7640    3.7540 h1        1 MOL      0.106518
     60 N6          4.6190   -2.9790    2.5940 n         1 MOL     -0.314983
     61 C19         4.8980   -4.1970    1.8010 c3        1 MOL     -0.208882
     62 C20         3.7170   -5.1700    1.4200 c         1 MOL      0.391313
     63 O10         3.9560   -6.0390    0.6030 o         1 MOL     -0.455708
     64 C21         6.0630   -5.0170    2.5230 c3        1 MOL     -0.243925
     65 C22         6.0850   -5.0690    4.1150 c         1 MOL      0.746266
     66 O11         7.1870   -4.8270    4.6120 o         1 MOL     -0.668459
     67 O12         5.0750   -5.4290    4.7660 o         1 MOL     -0.668459
     68 H28         5.0480   -2.6880    3.4550 hn        1 MOL      0.270657
     69 H29         5.2890   -3.8280    0.8500 h1        1 MOL      0.163637
     70 H30         7.0260   -4.5760    2.2530 hc        1 MOL      0.082151
     71 H31         6.0760   -6.0440    2.1450 hc        1 MOL      0.082151
     72 N7          2.4490   -4.9470    1.9230 n         1 MOL     -0.096790
     73 C23         1.2800   -5.7250    1.4990 c3        1 MOL     -0.259516
     74 C24         0.6540   -5.1610    0.2280 c         1 MOL      0.456634
     75 O13         0.0300   -6.0110   -0.5190 o         1 MOL     -0.546598
     76 H32         2.3780   -4.3290    2.7230 hn        1 MOL      0.204199
     77 H33         0.5650   -5.6710    2.3130 h1        1 MOL      0.136113
     78 H34         1.6400   -6.7220    1.2410 h1        1 MOL      0.136113
     79 N8          0.9520   -3.9430   -0.2450 n         1 MOL     -0.124418
     80 C25         0.3710   -3.3440   -1.4390 c3        1 MOL     -0.014694
     81 C26         0.0070   -1.8850   -1.3010 c         1 MOL      0.315166
     82 O14         0.5290   -1.1560   -0.4480 o         1 MOL     -0.463318
     83 C27         1.1000   -3.6040   -2.7470 c3        1 MOL      0.439917
     84 C28         2.4010   -2.7810   -2.9410 c3        1 MOL     -0.664233
     85 O15         1.6070   -4.9930   -2.9340 oh        1 MOL     -0.524404
     86 H35         1.5010   -3.3920    0.3930 hn        1 MOL      0.150346
     87 H36        -0.5960   -3.8380   -1.5600 h1        1 MOL     -0.033409
     88 H37         0.4680   -3.4000   -3.6110 h1        1 MOL     -0.037248
     89 H38         0.8950   -5.3210   -3.4990 ho        1 MOL      0.330680
     90 H39         3.0630   -2.9660   -2.0950 hc        1 MOL      0.183190
     91 H40         2.8590   -3.0430   -3.8930 hc        1 MOL      0.183190
     92 H41         2.1250   -1.7410   -2.7650 hc        1 MOL      0.183190
     93 N9         -1.0400   -1.4680   -2.0330 n         1 MOL     -0.112682
     94 C29        -1.6200   -0.1290   -2.0180 c3        1 MOL     -0.080402
     95 C30        -3.0300   -0.1310   -1.4260 c         1 MOL      0.616701
     96 O16        -3.4030    0.9080   -0.8550 o         1 MOL     -0.535633
     97 C31        -1.7120    0.4150   -3.5430 c3        1 MOL      0.081646
     98 C32        -0.4300    0.2050   -4.3240 c3        1 MOL     -0.013266
     99 C33        -2.0200    1.9280   -3.5370 c3        1 MOL     -0.187755
    100 C34         0.7710    1.0440   -3.9230 c3        1 MOL     -0.286318
    101 H42        -1.5230   -2.0690   -2.6770 hn        1 MOL      0.215679
    102 H43        -1.0230    0.5540   -1.4190 h1        1 MOL      0.092423
    103 H44        -2.4450   -0.1520   -4.1040 hc        1 MOL     -0.009295
    104 H45        -0.5830    0.3210   -5.4040 hc        1 MOL      0.009157
    105 H46        -0.1790   -0.8340   -4.1180 hc        1 MOL      0.009157
    106 H47        -3.0360    2.0630   -3.1780 hc        1 MOL      0.057477
    107 H48        -1.3110    2.4770   -2.9160 hc        1 MOL      0.057477
    108 H49        -1.9070    2.3430   -4.5440 hc        1 MOL      0.057477
    109 H50         0.5270    2.0170   -4.3590 hc        1 MOL      0.069194
    110 H51         0.7800    1.0180   -2.8410 hc        1 MOL      0.069194
    111 H52         1.7520    0.7280   -4.2840 hc        1 MOL      0.069194
    112 N10        -3.7140   -1.2290   -1.5990 n         1 MOL     -0.528282
    113 C35        -4.8240   -1.5570   -0.6700 c3        1 MOL     -0.016761
    114 C36        -6.0720   -2.2540   -1.3680 c         1 MOL      0.603291
    115 O17        -5.9010   -3.0130   -2.3940 o         1 MOL     -0.526293
    116 C37        -4.2460   -2.4930    0.4600 c3        1 MOL      0.234121
    117 C38        -3.6960   -3.8410   -0.0460 c3        1 MOL     -0.378083
    118 O18        -3.3090   -1.7500    1.1750 oh        1 MOL     -0.556060
    119 H53        -3.3310   -1.9590   -2.1950 hn        1 MOL      0.275545
    120 H54        -5.0340   -0.5910   -0.2290 h1        1 MOL      0.135484
    121 H55        -5.0820   -2.7950    1.0940 h1        1 MOL      0.009279
    122 H56        -2.8410   -2.3930    1.7170 ho        1 MOL      0.402127
    123 H57        -4.4210   -4.3350   -0.7020 hc        1 MOL      0.107845
    124 H58        -2.7570   -3.7750   -0.6020 hc        1 MOL      0.107845
    125 H59        -3.5460   -4.5810    0.7490 hc        1 MOL      0.107845
    126 N11        -7.2980   -2.0890   -0.8570 n         1 MOL     -0.584352
    127 C39        -8.4890   -2.6190   -1.6010 c3        1 MOL     -0.000822
    128 C40        -9.6780   -1.6200   -1.6670 c         1 MOL      0.590898
    129 O19       -10.4060   -1.5420   -2.6410 o         1 MOL     -0.544886
    130 C41        -8.8980   -3.9130   -0.8780 c3        1 MOL      0.395543
    131 C42        -9.8740   -4.7140   -1.7960 c3        1 MOL     -0.319289
    132 O20        -9.5660   -3.7580    0.3220 oh        1 MOL     -0.597522
    133 H60        -7.3670   -1.4140   -0.1130 hn        1 MOL      0.283191
    134 H61        -8.2670   -3.0090   -2.5940 h1        1 MOL      0.099461
    135 H62        -7.9920   -4.5070   -0.7990 h1        1 MOL      0.003090
    136 H63        -8.9860   -3.2540    0.8980 ho        1 MOL      0.366390
    137 H64       -10.1600   -5.6290   -1.2730 hc        1 MOL      0.087343
    138 H65       -10.7310   -4.1110   -2.1000 hc        1 MOL      0.087343
    139 H66        -9.3920   -4.9950   -2.7210 hc        1 MOL      0.087343
    140 N12        -9.9030   -0.9600   -0.5230 n         1 MOL     -0.466634
    141 C43       -11.0490   -0.0460   -0.2700 c3        1 MOL      0.073479
    142 C44       -10.5530    0.9250    0.7870 c         1 MOL      0.540346
    143 O21        -9.7500    0.6410    1.6090 o         1 MOL     -0.472205
    144 C45       -12.3670   -0.7690    0.1670 c3        1 MOL     -0.189486
    145 C46       -13.5920    0.0590   -0.2100 c3        1 MOL      0.079089
    146 C47       -14.9780   -0.6580    0.1550 c3        1 MOL     -0.134486
    147 C48       -16.0520    0.1250   -0.5970 c3        1 MOL      0.170547
    148 N13       -17.4110   -0.5100   -0.4490 n4        1 MOL     -0.205114
    149 H67        -9.3230   -1.2560    0.2550 hn        1 MOL      0.257300
    150 H68       -11.3130    0.4480   -1.2000 h1        1 MOL      0.067556
    151 H69       -12.3330   -0.9900    1.2310 hc        1 MOL      0.088643
    152 H70       -12.5070   -1.7030   -0.3790 hc        1 MOL      0.088643
    153 H71       -13.5560    0.2690   -1.2730 hc        1 MOL     -0.002296
    154 H72       -13.5310    1.0690    0.1900 hc        1 MOL     -0.002296
    155 H73       -15.1830   -0.6350    1.2330 hc        1 MOL      0.059911
    156 H74       -15.0170   -1.6670   -0.2540 hc        1 MOL      0.059911
    157 H75       -15.9190    0.2220   -1.6750 hx        1 MOL      0.041640
    158 H76       -16.1510    1.1290   -0.1730 hx        1 MOL      0.041640
    159 H77       -18.0350   -0.3400    0.3320 hn        1 MOL      0.239178
    160 H78       -17.8720   -0.2340   -1.3050 hn        1 MOL      0.239178
    161 H79       -17.3700   -1.5190   -0.5010 hn        1 MOL      0.239178
    162 N14       -11.0670    2.1610    0.7900 n         1 MOL     -0.442201
    163 C49       -10.7580    3.1910    1.8030 c3        1 MOL      0.139319
    164 C50        -9.3230    3.5800    2.0920 c         1 MOL      0.263842
    165 O22        -8.9410    3.6220    3.2630 o         1 MOL     -0.500196
    166 C51       -11.5960    4.4550    1.5010 c3        1 MOL      0.041897
    167 C52       -13.1240    4.2040    1.3970 c3        1 MOL     -0.389126
    168 C53       -13.8630    5.5650    1.4590 c         1 MOL      0.702033
    169 O23       -15.0330    5.6400    1.8880 o         1 MOL     -0.659709
    170 O24       -13.2660    6.6720    1.1880 o         1 MOL     -0.659709
    171 H80       -11.7890    2.4320    0.1420 hn        1 MOL      0.248269
    172 H81       -11.2550    2.7960    2.7020 h1        1 MOL      0.042326
    173 H82       -11.1880    5.0160    0.6660 hc        1 MOL      0.068567
    174 H83       -11.5710    5.1090    2.3730 hc        1 MOL      0.068567
    175 H84       -13.3880    3.6840    2.3160 hc        1 MOL      0.086442
    176 H85       -13.4000    3.6220    0.5210 hc        1 MOL      0.086442
    177 N15        -8.5240    4.0550    1.1360 n         1 MOL     -0.217521
    178 C54        -8.8290    4.4230   -0.2140 c3        1 MOL     -0.047659
    179 H86        -7.9950    4.9860   -0.6340 h1        1 MOL      0.035484
    180 H87        -8.9950    3.5240   -0.8080 h1        1 MOL      0.035484
    181 H88        -9.7270    5.0400   -0.2290 h1        1 MOL      0.035484
    182 H89        -7.6100    4.2700    1.5140 hn        1 MOL      0.266513
    183 Ca1         5.7520    3.5790   -1.0180 Ca        1 MOL      1.775486
    184 O25         4.5640    5.0330    0.8610 oh        1 MOL     -0.888245
    185 H90         4.0300    5.0220    1.6610 ho        1 MOL      0.436850
    186 H91         4.1560    5.6840    0.2960 ho        1 MOL      0.436850
    187 O26         6.5960    3.5320   -3.4790 oh        1 MOL     -0.888245
    188 H92         7.1780    4.1500   -3.9210 ho        1 MOL      0.436850
    189 H93         6.3400    2.9090   -4.1610 ho        1 MOL      0.436850
    190 O27         3.0060    3.2970   -0.7510 oh        1 MOL     -0.888245
    191 H94         2.2600    3.9110   -0.7620 ho        1 MOL      0.436850
    192 H95         2.6070    2.4430   -0.6050 ho        1 MOL      0.436850
    193 O28         4.8690    1.3930   -2.4500 oh        1 MOL     -0.888245
    194 H96         4.4970    0.5940   -2.0660 ho        1 MOL      0.436850
    195 H97         5.1300    1.1400   -3.3330 ho        1 MOL      0.436850
@<TRIPOS>BOND
     1    1    2 1   
     2    1    4 1   
     3    1    5 1   
     4    1    6 1   
     5    2    3 2   
     6    2    7 1   
     7    7    8 1   
     8    7   15 1   
     9    8    9 1   
    10    8   11 1   
    11    8   16 1   
    12    9   10 2   
    13    9   19 1   
    14   11   12 1   
    15   11   17 1   
    16   11   18 1   
    17   12   13 1   
    18   12   14 1   
    19   19   20 1   
    20   19   28 1   
    21   20   21 1   
    22   20   23 1   
    23   20   29 1   
    24   21   22 2   
    25   21   41 1   
    26   23   24 1   
    27   23   30 1   
    28   23   31 1   
    29   24   25 1   
    30   24   32 1   
    31   24   33 1   
    32   25   26 1   
    33   25   34 1   
    34   25   35 1   
    35   26   27 1   
    36   26   36 1   
    37   26   37 1   
    38   27   38 1   
    39   27   39 1   
    40   27   40 1   
    41   41   42 1   
    42   41   49 1   
    43   42   43 1   
    44   42   45 1   
    45   42   50 1   
    46   43   44 2   
    47   43   53 1   
    48   45   46 1   
    49   45   51 1   
    50   45   52 1   
    51   46   47 1   
    52   46   48 1   
    53   53   54 1   
    54   53   57 1   
    55   54   55 1   
    56   54   58 1   
    57   54   59 1   
    58   55   56 2   
    59   55   60 1   
    60   60   61 1   
    61   60   68 1   
    62   61   62 1   
    63   61   64 1   
    64   61   69 1   
    65   62   63 2   
    66   62   72 1   
    67   64   65 1   
    68   64   70 1   
    69   64   71 1   
    70   65   66 1   
    71   65   67 1   
    72   72   73 1   
    73   72   76 1   
    74   73   74 1   
    75   73   77 1   
    76   73   78 1   
    77   74   75 2   
    78   74   79 1   
    79   79   80 1   
    80   79   86 1   
    81   80   81 1   
    82   80   83 1   
    83   80   87 1   
    84   81   82 2   
    85   81   93 1   
    86   83   84 1   
    87   83   85 1   
    88   83   88 1   
    89   84   90 1   
    90   84   91 1   
    91   84   92 1   
    92   85   89 1   
    93   93   94 1   
    94   93  101 1   
    95   94   95 1   
    96   94   97 1   
    97   94  102 1   
    98   95   96 2   
    99   95  112 1   
   100   97   98 1   
   101   97   99 1   
   102   97  103 1   
   103   98  100 1   
   104   98  104 1   
   105   98  105 1   
   106   99  106 1   
   107   99  107 1   
   108   99  108 1   
   109  100  109 1   
   110  100  110 1   
   111  100  111 1   
   112  112  113 1   
   113  112  119 1   
   114  113  114 1   
   115  113  116 1   
   116  113  120 1   
   117  114  115 2   
   118  114  126 1   
   119  116  117 1   
   120  116  118 1   
   121  116  121 1   
   122  117  123 1   
   123  117  124 1   
   124  117  125 1   
   125  118  122 1   
   126  126  127 1   
   127  126  133 1   
   128  127  128 1   
   129  127  130 1   
   130  127  134 1   
   131  128  129 2   
   132  128  140 1   
   133  130  131 1   
   134  130  132 1   
   135  130  135 1   
   136  131  137 1   
   137  131  138 1   
   138  131  139 1   
   139  132  136 1   
   140  140  141 1   
   141  140  149 1   
   142  141  142 1   
   143  141  144 1   
   144  141  150 1   
   145  142  143 2   
   146  142  162 1   
   147  144  145 1   
   148  144  151 1   
   149  144  152 1   
   150  145  146 1   
   151  145  153 1   
   152  145  154 1   
   153  146  147 1   
   154  146  155 1   
   155  146  156 1   
   156  147  148 1   
   157  147  157 1   
   158  147  158 1   
   159  148  159 1   
   160  148  160 1   
   161  148  161 1   
   162  162  163 1   
   163  162  171 1   
   164  163  164 1   
   165  163  166 1   
   166  163  172 1   
   167  164  165 2   
   168  164  177 1   
   169  166  167 1   
   170  166  173 1   
   171  166  174 1   
   172  167  168 1   
   173  167  175 1   
   174  167  176 1   
   175  168  169 1   
   176  168  170 1   
   177  177  178 1   
   178  177  182 1   
   179  178  179 1   
   180  178  180 1   
   181  178  181 1   
   182  184  185 1   
   183  184  186 1   
   184  187  188 1   
   185  187  189 1   
   186  190  191 1   
   187  190  192 1   
   188  193  194 1   
   189  193  195 1   
@<TRIPOS>SUBSTRUCTURE
     1 MOL         1 TEMP              0 ****  ****    0 ROOT
