@<TRIPOS>MOLECULE
MOL
  188   182     1     0     0
SMALL
resp


@<TRIPOS>ATOM
      1 C1          6.4330   -2.8050    4.7400 c3        1 MOL     -0.439117
      2 C2          6.4570   -1.6230    3.7390 c         1 MOL      0.769417
      3 O1          5.5100   -1.5220    2.9030 o         1 MOL     -0.599169
      4 H1          7.4200   -2.9220    5.1860 hc        1 MOL      0.116083
      5 H2          5.7020   -2.6040    5.5220 hc        1 MOL      0.116083
      6 H3          6.1620   -3.7210    4.2150 hc        1 MOL      0.116083
      7 N1          7.4630   -0.7390    3.8080 n         1 MOL     -0.739531
      8 C3          7.8170    0.2940    2.8400 c3        1 MOL      0.485108
      9 C4          7.5920   -0.0500    1.3640 c         1 MOL      0.261773
     10 O2          6.9920    0.7090    0.6380 o         1 MOL     -0.337185
     11 C5          7.2900    1.7320    3.1860 c3        1 MOL     -0.346038
     12 C6          7.7840    2.3080    4.4540 c         1 MOL      0.726849
     13 O3          7.3850    1.7840    5.5150 o         1 MOL     -0.680559
     14 O4          8.6720    3.1330    4.5420 o         1 MOL     -0.680559
     15 H4          7.9710   -0.7320    4.6800 hn        1 MOL      0.356504
     16 H5          8.8890    0.4750    2.8150 h1        1 MOL     -0.015636
     17 H6          6.2000    1.7470    3.2970 hc        1 MOL      0.094737
     18 H7          7.6890    2.4370    2.4500 hc        1 MOL      0.094737
     19 N2          8.1420   -1.1510    0.8170 n         1 MOL     -0.498957
     20 C7          7.9710   -1.5800   -0.5890 c3        1 MOL      0.219143
     21 C8          6.6260   -2.2920   -0.7980 c         1 MOL      0.510957
     22 O5          6.5220   -3.4050   -1.2700 o         1 MOL     -0.551583
     23 C9          9.1250   -2.3640   -1.0840 c3        1 MOL      0.346809
     24 C10        10.5400   -1.8260   -0.7900 c3        1 MOL     -0.210327
     25 C11        11.2590   -1.7880   -2.1650 c3        1 MOL      0.089951
     26 C12        12.7140   -1.4140   -2.0280 c3        1 MOL      0.086117
     27 N3         13.5920   -1.8130   -3.1690 n4        1 MOL     -0.272700
     28 H8          8.5730   -1.8070    1.4610 hn        1 MOL      0.243759
     29 H9          8.0560   -0.7430   -1.2710 h1        1 MOL     -0.003630
     30 H10         8.9670   -2.4580   -2.1610 hc        1 MOL     -0.085824
     31 H11         9.0150   -3.4160   -0.7980 hc        1 MOL     -0.085824
     32 H12        11.0490   -2.4540   -0.0650 hc        1 MOL      0.051606
     33 H13        10.4980   -0.8070   -0.4130 hc        1 MOL      0.051606
     34 H14        10.8600   -1.0600   -2.8750 hc        1 MOL      0.003309
     35 H15        11.2690   -2.8120   -2.5170 hc        1 MOL      0.003309
     36 H16        13.0900   -1.7780   -1.0620 hx        1 MOL      0.054948
     37 H17        12.7150   -0.3340   -1.8870 hx        1 MOL      0.054948
     38 H18        13.2300   -2.6440   -3.6170 hn        1 MOL      0.217712
     39 H19        13.5570   -1.1410   -3.9230 hn        1 MOL      0.217712
     40 H20        14.5420   -2.0010   -2.8940 hn        1 MOL      0.217712
     41 N4          5.4960   -1.6640   -0.4740 n         1 MOL     -0.285758
     42 C13         4.1010   -2.0910   -0.5430 c3        1 MOL     -0.129594
     43 C14         3.6280   -2.2970   -2.0270 c         1 MOL      0.533240
     44 O6          4.1190   -1.6260   -2.9880 o         1 MOL     -0.474123
     45 C15         3.2570   -1.0590    0.2490 c3        1 MOL      0.032451
     46 C16         1.7400   -1.4480    0.3390 c         1 MOL      0.297405
     47 O7          0.9640   -1.1010   -0.6010 o         1 MOL     -0.630211
     48 O8          1.2540   -2.1780    1.2870 o         1 MOL     -0.630211
     49 H21         5.6140   -0.6910   -0.2380 hn        1 MOL      0.082920
     50 H22         3.8910   -3.0710   -0.1090 h1        1 MOL      0.101010
     51 H23         3.3610   -0.0770   -0.2230 hc        1 MOL      0.149792
     52 H24         3.6070   -1.0610    1.2790 hc        1 MOL      0.149792
     53 N5          2.7570   -3.3270   -2.1680 n         1 MOL     -0.321770
     54 C17         2.1850   -3.8930   -3.3800 c3        1 MOL     -0.065320
     55 C18         1.2320   -3.0570   -4.2570 c         1 MOL      0.545256
     56 O9          1.1410   -3.2490   -5.4540 o         1 MOL     -0.542701
     57 H25         2.5850   -3.7880   -1.2820 hn        1 MOL      0.273792
     58 H26         1.5870   -4.7770   -3.1050 h1        1 MOL      0.065364
     59 H27         2.9420   -4.1990   -4.0930 h1        1 MOL      0.065364
     60 N6          0.7570   -1.9370   -3.6380 n         1 MOL     -0.168259
     61 C19         0.2280   -0.8070   -4.3890 c3        1 MOL      0.021320
     62 C20         0.8880    0.5010   -3.8980 c         1 MOL      0.470590
     63 O10         0.2440    1.5010   -3.8760 o         1 MOL     -0.519160
     64 C21        -1.3040   -0.8670   -4.3120 c3        1 MOL     -0.303621
     65 C22        -1.9350   -0.4530   -2.9980 c         1 MOL      0.718757
     66 N7         -2.6270    0.6990   -3.0130 n         1 MOL     -0.789352
     67 O11        -1.8130   -1.0620   -1.9720 o         1 MOL     -0.572999
     68 H28         0.9460   -1.9100   -2.6490 hn        1 MOL     -0.016998
     69 H29         0.4650   -0.9370   -5.4460 h1        1 MOL      0.110377
     70 H30        -1.8040   -1.7790   -4.6610 hc        1 MOL      0.099909
     71 H31        -1.6570   -0.1200   -5.0260 hc        1 MOL      0.099909
     72 H32        -2.7090    1.3050   -3.8170 hn        1 MOL      0.345010
     73 H33        -3.1250    1.0700   -2.2130 hn        1 MOL      0.345010
     74 N8          2.1050    0.4230   -3.3570 n         1 MOL     -0.253137
     75 C23         2.8880    1.5570   -2.9480 c3        1 MOL     -0.064916
     76 C24         2.2820    2.3660   -1.7600 c         1 MOL      0.484968
     77 O12         2.4180    3.5620   -1.7230 o         1 MOL     -0.516859
     78 H34         2.5940   -0.4550   -3.3290 hn        1 MOL      0.146578
     79 H35         2.9010    2.2340   -3.7960 h1        1 MOL      0.085025
     80 H36         3.9430    1.2930   -2.8500 h1        1 MOL      0.085025
     81 N9          1.6040    1.6850   -0.8190 n         1 MOL     -0.373116
     82 C25         0.8630    2.4490    0.1970 c3        1 MOL     -0.004165
     83 C26        -0.5230    1.9600    0.5350 c         1 MOL      0.684042
     84 O13        -0.7810    0.7440    0.6230 o         1 MOL     -0.644839
     85 C27         1.7670    2.4200    1.4770 c3        1 MOL     -0.073123
     86 C28         2.9830    3.3560    1.4220 ca        1 MOL      0.045895
     87 C29         4.2340    2.7530    1.1350 ca        1 MOL     -0.211280
     88 C30         2.8240    4.6980    1.6170 ca        1 MOL     -0.211280
     89 C31         5.3680    3.5380    1.0240 ca        1 MOL     -0.125726
     90 C32         3.9670    5.4690    1.5800 ca        1 MOL     -0.125726
     91 C33         5.2140    4.9390    1.3350 ca        1 MOL      0.296549
     92 O14         6.1880    5.8440    1.1410 oh        1 MOL     -0.507691
     93 H37         1.4120    0.6900   -0.8920 hn        1 MOL      0.344377
     94 H38         0.7430    3.4660   -0.1840 h1        1 MOL      0.079419
     95 H39         2.1000    1.4030    1.6490 hc        1 MOL      0.033574
     96 H40         1.0710    2.6490    2.2920 hc        1 MOL      0.033574
     97 H41         4.3710    1.6810    1.1690 ha        1 MOL      0.118387
     98 H42         1.8470    5.1110    1.8300 ha        1 MOL      0.118387
     99 H43         6.3380    3.1600    0.7240 ha        1 MOL      0.086612
    100 H44         3.8430    6.5080    1.8590 ha        1 MOL      0.086612
    101 H45         5.9590    6.7760    1.2220 ho        1 MOL      0.380132
    102 N10        -1.4670    2.9250    0.6550 n         1 MOL     -0.691283
    103 C34        -2.9350    2.6050    0.8980 c3        1 MOL      0.551313
    104 C35        -3.7630    2.6960   -0.3670 c         1 MOL      0.111041
    105 O15        -4.4210    1.7220   -0.7340 o         1 MOL     -0.250971
    106 C36        -3.4270    3.4770    2.0960 c3        1 MOL      0.028167
    107 C37        -2.4330    3.3850    3.3470 c3        1 MOL      0.095494
    108 C38        -4.8970    3.1150    2.4450 c3        1 MOL     -0.261193
    109 C39        -2.4270    1.9710    4.0250 c3        1 MOL     -0.123721
    110 H46        -1.2520    3.9010    0.5390 hn        1 MOL      0.325079
    111 H47        -2.9790    1.5750    1.2530 h1        1 MOL     -0.111778
    112 H48        -3.3740    4.4890    1.7130 hc        1 MOL     -0.043225
    113 H49        -2.7360    4.1260    4.0830 hc        1 MOL     -0.011463
    114 H50        -1.4250    3.6960    3.0590 hc        1 MOL     -0.011463
    115 H51        -5.2660    3.7460    3.2550 hc        1 MOL      0.073131
    116 H52        -5.4770    3.4000    1.5660 hc        1 MOL      0.073131
    117 H53        -4.9680    2.0640    2.7170 hc        1 MOL      0.073131
    118 H54        -1.6200    1.9900    4.7500 hc        1 MOL      0.041788
    119 H55        -3.3460    1.8130    4.5840 hc        1 MOL      0.041788
    120 H56        -2.1360    1.2250    3.2770 hc        1 MOL      0.041788
    121 N11        -3.6560    3.7560   -1.1650 n         1 MOL     -0.266961
    122 C40        -4.5220    3.8920   -2.4100 c3        1 MOL     -0.061409
    123 C41        -6.0540    3.8250   -2.1490 c         1 MOL      0.261914
    124 O16        -6.8550    3.4790   -2.9660 o         1 MOL     -0.408610
    125 C42        -4.2630    5.2370   -3.1370 c3        1 MOL      0.235417
    126 O17        -2.9150    5.6110   -3.0380 oh        1 MOL     -0.545137
    127 H57        -2.9560    4.4400   -0.9070 hn        1 MOL      0.238171
    128 H58        -4.2550    3.0040   -2.9910 h1        1 MOL      0.096183
    129 H59        -4.7840    6.0030   -2.5530 h1        1 MOL      0.050384
    130 H60        -4.7520    5.1590   -4.1080 h1        1 MOL      0.050384
    131 H61        -2.4960    4.7450   -3.1260 ho        1 MOL      0.359508
    132 N12        -6.4860    4.0580   -0.9120 n         1 MOL     -0.288574
    133 C43        -7.8290    3.7460   -0.3950 c3        1 MOL      0.231476
    134 C44        -8.2330    2.2800   -0.6180 c         1 MOL      0.309564
    135 O18        -9.4340    1.9960   -0.7330 o         1 MOL     -0.492742
    136 C45        -8.8690    4.7770   -0.9430 c3        1 MOL     -0.357294
    137 H62        -5.9140    4.6510   -0.3280 hn        1 MOL      0.236295
    138 H63        -7.7980    4.0240    0.6590 h1        1 MOL      0.040439
    139 H64        -8.5590    5.7820   -0.6580 hc        1 MOL      0.108347
    140 H65        -9.0220    4.6920   -2.0210 hc        1 MOL      0.108347
    141 H66        -9.8210    4.5670   -0.4640 hc        1 MOL      0.108347
    142 N13        -7.3140    1.2970   -0.6780 n         1 MOL     -0.032786
    143 C46        -7.5880   -0.0950   -1.0310 c3        1 MOL      0.183369
    144 C47        -7.3630   -1.0780    0.1200 c         1 MOL      0.329915
    145 O19        -6.5530   -0.8050    0.9780 o         1 MOL     -0.493186
    146 C48        -6.6720   -0.5480   -2.1590 c3        1 MOL     -0.045099
    147 H67        -6.3500    1.4670   -0.4140 hn        1 MOL     -0.103352
    148 H68        -8.6170   -0.1510   -1.3910 h1        1 MOL      0.012351
    149 H69        -5.6140   -0.5460   -1.9000 hc        1 MOL      0.015525
    150 H70        -6.9640   -1.5410   -2.4940 hc        1 MOL      0.015525
    151 H71        -6.6940    0.0660   -3.0560 hc        1 MOL      0.015525
    152 N14        -7.9880   -2.2090    0.0840 n         1 MOL     -0.472704
    153 C49        -7.9740   -3.2360    1.1840 c3        1 MOL      0.020697
    154 C50        -8.1430   -2.6520    2.6160 c         1 MOL      0.446061
    155 O20        -7.4500   -3.1340    3.5890 o         1 MOL     -0.472382
    156 C51        -6.7040   -4.1800    0.9630 c3        1 MOL      0.167864
    157 C52        -6.7350   -5.5140    1.6860 c3        1 MOL     -0.322285
    158 C53        -8.0890   -6.2010    1.7270 c         1 MOL      0.783381
    159 O21        -8.8430   -5.9250    2.6490 o         1 MOL     -0.688272
    160 O22        -8.4530   -7.0550    0.8840 o         1 MOL     -0.688272
    161 H72        -8.6310   -2.3320   -0.6840 hn        1 MOL      0.327170
    162 H73        -8.8520   -3.8520    1.0010 h1        1 MOL      0.105890
    163 H74        -5.8110   -3.6590    1.3040 hc        1 MOL     -0.036672
    164 H75        -6.6440   -4.3830   -0.1050 hc        1 MOL     -0.036672
    165 H76        -6.2820   -5.3930    2.6670 hc        1 MOL      0.041524
    166 H77        -6.0080   -6.1630    1.1940 hc        1 MOL      0.041524
    167 N15        -8.8150   -1.4710    2.7850 n         1 MOL     -0.321852
    168 C54        -9.1030   -0.8240    4.0760 c3        1 MOL      0.005774
    169 H78       -10.1780   -0.6680    4.1720 h1        1 MOL      0.049641
    170 H79        -8.7560   -1.4620    4.8880 h1        1 MOL      0.049641
    171 H80        -8.5920    0.1370    4.1240 h1        1 MOL      0.049641
    172 H81        -9.1330   -1.0100    1.9490 hn        1 MOL      0.240009
    173 Ca1        -1.2680   -1.8620    0.5170 Ca        1 MOL      1.823806
    174 O23        -0.2960   -3.8760   -1.0300 oh        1 MOL     -0.836002
    175 H82        -0.7520   -4.3650   -1.7210 ho        1 MOL      0.418909
    176 H83         0.3160   -4.5030   -0.6450 ho        1 MOL      0.418909
    177 O24        -2.4900   -1.4970    2.9330 oh        1 MOL     -0.836002
    178 H84        -2.0560   -1.4830    3.7910 ho        1 MOL      0.418909
    179 H85        -3.4190   -1.3400    3.1350 ho        1 MOL      0.418909
    180 O25        -0.9440   -4.1890    2.0150 oh        1 MOL     -0.836002
    181 H86        -1.2070   -4.6130    2.8310 ho        1 MOL      0.418909
    182 H87        -0.4450   -4.8590    1.5490 ho        1 MOL      0.418909
    183 O26        -3.8460   -0.7830    0.4710 oh        1 MOL     -0.836002
    184 H88        -4.2180   -0.0640   -0.0290 ho        1 MOL      0.418909
    185 H89        -4.4990   -0.9820    1.1410 ho        1 MOL      0.418909
    186 O27        -3.0190   -3.9870   -0.3200 oh        1 MOL     -0.836002
    187 H90        -3.7590   -4.1990   -0.8880 ho        1 MOL      0.418909
    188 H91        -2.9430   -4.7440    0.2570 ho        1 MOL      0.418909
@<TRIPOS>BOND
     1    1    2 1   
     2    1    4 1   
     3    1    5 1   
     4    1    6 1   
     5    2    3 2   
     6    2    7 1   
     7    7    8 1   
     8    7   15 1   
     9    8    9 1   
    10    8   11 1   
    11    8   16 1   
    12    9   10 2   
    13    9   19 1   
    14   11   12 1   
    15   11   17 1   
    16   11   18 1   
    17   12   13 1   
    18   12   14 1   
    19   19   20 1   
    20   19   28 1   
    21   20   21 1   
    22   20   23 1   
    23   20   29 1   
    24   21   22 2   
    25   21   41 1   
    26   23   24 1   
    27   23   30 1   
    28   23   31 1   
    29   24   25 1   
    30   24   32 1   
    31   24   33 1   
    32   25   26 1   
    33   25   34 1   
    34   25   35 1   
    35   26   27 1   
    36   26   36 1   
    37   26   37 1   
    38   27   38 1   
    39   27   39 1   
    40   27   40 1   
    41   41   42 1   
    42   41   49 1   
    43   42   43 1   
    44   42   45 1   
    45   42   50 1   
    46   43   44 2   
    47   43   53 1   
    48   45   46 1   
    49   45   51 1   
    50   45   52 1   
    51   46   47 1   
    52   46   48 1   
    53   53   54 1   
    54   53   57 1   
    55   54   55 1   
    56   54   58 1   
    57   54   59 1   
    58   55   56 2   
    59   55   60 1   
    60   60   61 1   
    61   60   68 1   
    62   61   62 1   
    63   61   64 1   
    64   61   69 1   
    65   62   63 2   
    66   62   74 1   
    67   64   65 1   
    68   64   70 1   
    69   64   71 1   
    70   65   66 1   
    71   65   67 2   
    72   66   72 1   
    73   66   73 1   
    74   74   75 1   
    75   74   78 1   
    76   75   76 1   
    77   75   79 1   
    78   75   80 1   
    79   76   77 2   
    80   76   81 1   
    81   81   82 1   
    82   81   93 1   
    83   82   83 1   
    84   82   85 1   
    85   82   94 1   
    86   83   84 2   
    87   83  102 1   
    88   85   86 1   
    89   85   95 1   
    90   85   96 1   
    91   86   87 ar  
    92   86   88 ar  
    93   87   89 ar  
    94   87   97 1   
    95   88   90 ar  
    96   88   98 1   
    97   89   91 ar  
    98   89   99 1   
    99   90   91 ar  
   100   90  100 1   
   101   91   92 1   
   102   92  101 1   
   103  102  103 1   
   104  102  110 1   
   105  103  104 1   
   106  103  106 1   
   107  103  111 1   
   108  104  105 2   
   109  104  121 1   
   110  106  107 1   
   111  106  108 1   
   112  106  112 1   
   113  107  109 1   
   114  107  113 1   
   115  107  114 1   
   116  108  115 1   
   117  108  116 1   
   118  108  117 1   
   119  109  118 1   
   120  109  119 1   
   121  109  120 1   
   122  121  122 1   
   123  121  127 1   
   124  122  123 1   
   125  122  125 1   
   126  122  128 1   
   127  123  124 2   
   128  123  132 1   
   129  125  126 1   
   130  125  129 1   
   131  125  130 1   
   132  126  131 1   
   133  132  133 1   
   134  132  137 1   
   135  133  134 1   
   136  133  136 1   
   137  133  138 1   
   138  134  135 2   
   139  134  142 1   
   140  136  139 1   
   141  136  140 1   
   142  136  141 1   
   143  142  143 1   
   144  142  147 1   
   145  143  144 1   
   146  143  146 1   
   147  143  148 1   
   148  144  145 2   
   149  144  152 1   
   150  146  149 1   
   151  146  150 1   
   152  146  151 1   
   153  152  153 1   
   154  152  161 1   
   155  153  154 1   
   156  153  156 1   
   157  153  162 1   
   158  154  155 2   
   159  154  167 1   
   160  156  157 1   
   161  156  163 1   
   162  156  164 1   
   163  157  158 1   
   164  157  165 1   
   165  157  166 1   
   166  158  159 1   
   167  158  160 1   
   168  167  168 1   
   169  167  172 1   
   170  168  169 1   
   171  168  170 1   
   172  168  171 1   
   173  174  175 1   
   174  174  176 1   
   175  177  178 1   
   176  177  179 1   
   177  180  181 1   
   178  180  182 1   
   179  183  184 1   
   180  183  185 1   
   181  186  187 1   
   182  186  188 1   
@<TRIPOS>SUBSTRUCTURE
     1 MOL         1 TEMP              0 ****  ****    0 ROOT
