@<TRIPOS>MOLECULE
MOL
  188   182     1     0     0
SMALL
resp


@<TRIPOS>ATOM
      1 C1          0.9250    1.0290    2.6550 c3        1 MOL     -0.393430
      2 C2          2.0750    0.6780    1.7320 c         1 MOL      0.682919
      3 O1          2.2570    1.2640    0.6350 o         1 MOL     -0.512684
      4 H1          0.0950    1.4210    2.0670 hc        1 MOL      0.108326
      5 H2          0.6010    0.1370    3.1890 hc        1 MOL      0.108326
      6 H3          1.2510    1.7840    3.3710 hc        1 MOL      0.108326
      7 N1          2.9290   -0.2610    2.2000 n         1 MOL     -0.491383
      8 C3          4.0990   -0.7530    1.4950 c3        1 MOL      0.023697
      9 C4          4.2220   -2.3030    1.2570 c         1 MOL      0.249847
     10 O2          5.1330   -2.7580    0.5390 o         1 MOL     -0.327676
     11 C5          5.3850   -0.1830    2.0390 c3        1 MOL     -0.009044
     12 C6          5.6940   -0.6280    3.4460 c         1 MOL      0.605477
     13 O3          6.4720    0.0330    4.0940 o         1 MOL     -0.650713
     14 O4          5.0260   -1.5990    3.9580 o         1 MOL     -0.650713
     15 H4          2.6240   -0.7690    3.0130 hn        1 MOL      0.277875
     16 H5          4.0760   -0.3350    0.4940 h1        1 MOL      0.116513
     17 H6          5.3020    0.9010    1.9930 hc        1 MOL      0.032493
     18 H7          6.2740   -0.4170    1.4610 hc        1 MOL      0.032493
     19 N2          3.2210   -3.1540    1.5420 n         1 MOL     -0.465780
     20 C7          3.1200   -4.6240    1.3390 c3        1 MOL      0.021948
     21 C8          3.1920   -5.0990   -0.0960 c         1 MOL      0.308395
     22 O5          3.0970   -6.3040   -0.3510 o         1 MOL     -0.550965
     23 C9          4.2250   -5.2680    2.1920 c3        1 MOL     -0.139922
     24 C10         4.1100   -4.9820    3.7230 c3        1 MOL      0.259746
     25 C11         5.2860   -5.4710    4.5010 c3        1 MOL     -0.206475
     26 C12         6.7040   -4.8730    4.3300 c3        1 MOL      0.129213
     27 N3          6.7760   -3.5500    4.9600 n4        1 MOL     -0.376000
     28 H8          2.4430   -2.8230    2.1110 hn        1 MOL      0.329019
     29 H9          2.2780   -5.1480    1.7880 h1        1 MOL      0.055080
     30 H10         5.1640   -4.8360    1.8390 hc        1 MOL      0.078678
     31 H11         4.1790   -6.3600    2.1400 hc        1 MOL      0.078678
     32 H12         3.1950   -5.4260    4.1130 hc        1 MOL     -0.037157
     33 H13         3.9960   -3.9190    3.9100 hc        1 MOL     -0.037157
     34 H14         5.4560   -6.4900    4.1540 hc        1 MOL      0.038771
     35 H15         4.9840   -5.4820    5.5530 hc        1 MOL      0.038771
     36 H16         6.9190   -4.9390    3.2620 hx        1 MOL      0.053627
     37 H17         7.3510   -5.5330    4.9040 hx        1 MOL      0.053627
     38 H18         7.7390   -3.2800    4.9550 hn        1 MOL      0.314982
     39 H19         6.1410   -2.9570    4.4360 hn        1 MOL      0.314982
     40 H20         6.4170   -3.5260    5.9090 hn        1 MOL      0.314982
     41 N4          3.1820   -4.1960   -1.0500 n         1 MOL     -0.366659
     42 C13         3.3600   -4.3620   -2.4850 c3        1 MOL      0.774503
     43 C14         4.1070   -3.1340   -3.0400 c         1 MOL      0.082949
     44 O6          3.8920   -2.7260   -4.1930 o         1 MOL     -0.482218
     45 C15         1.9860   -4.5160   -3.1610 c3        1 MOL     -0.424974
     46 C16         0.9000   -3.5690   -2.7070 c         1 MOL      0.874886
     47 O7         -0.3120   -3.8560   -2.9600 o         1 MOL     -0.720943
     48 O8          1.1050   -2.4470   -2.2910 o         1 MOL     -0.720943
     49 H21         3.1380   -3.2350   -0.7600 hn        1 MOL      0.351731
     50 H22         3.9520   -5.2490   -2.7250 h1        1 MOL     -0.070598
     51 H23         1.7340   -5.5500   -2.9160 hc        1 MOL      0.009718
     52 H24         2.1230   -4.5500   -4.2460 hc        1 MOL      0.009718
     53 N5          4.8260   -2.4300   -2.2340 n         1 MOL     -0.014235
     54 C17         5.6320   -1.2770   -2.5930 c3        1 MOL     -0.017631
     55 C18         6.8130   -1.0220   -1.6160 c         1 MOL      0.501119
     56 O9          7.4050   -1.9890   -1.2190 o         1 MOL     -0.525946
     57 H25         4.8570   -2.6640   -1.2430 hn        1 MOL     -0.086919
     58 H26         4.9870   -0.4480   -2.8460 h1        1 MOL      0.082630
     59 H27         6.1060   -1.4910   -3.5520 h1        1 MOL      0.082630
     60 N6          7.1790    0.2370   -1.2510 n         1 MOL     -0.388673
     61 C19         6.6260    1.4820   -1.7450 c3        1 MOL      0.038980
     62 C20         6.7160    2.5260   -0.6270 c         1 MOL      0.417540
     63 O10         7.7370    2.7570    0.0270 o         1 MOL     -0.555369
     64 C21         7.5770    1.9290   -2.8910 c3        1 MOL     -0.284206
     65 C22         7.3980    3.3230   -3.4680 c         1 MOL      0.716688
     66 N7          8.4440    4.1270   -3.4620 n         1 MOL     -0.818855
     67 O11         6.3120    3.7230   -3.8200 o         1 MOL     -0.560115
     68 H28         8.0410    0.2830   -0.7380 hn        1 MOL      0.301660
     69 H29         5.6090    1.4130   -2.1440 h1        1 MOL      0.075391
     70 H30         7.4100    1.2040   -3.6870 hc        1 MOL      0.074684
     71 H31         8.6130    1.7890   -2.5760 hc        1 MOL      0.074684
     72 H32         9.2840    3.8090   -3.0230 hn        1 MOL      0.378541
     73 H33         8.2820    5.1050   -3.6550 hn        1 MOL      0.378541
     74 N8          5.6720    3.1850   -0.3000 n         1 MOL     -0.230594
     75 C23         4.3330    3.3270   -0.8770 c3        1 MOL     -0.146335
     76 C24         3.5170    4.4750   -0.3470 c         1 MOL      0.724945
     77 O12         3.9540    5.4090    0.2630 o         1 MOL     -0.557922
     78 H34         5.8590    3.8430    0.4360 hn        1 MOL      0.238127
     79 H35         3.7960    2.4260   -0.5780 h1        1 MOL      0.079944
     80 H36         4.4210    3.5070   -1.9450 h1        1 MOL      0.079944
     81 N9          2.1780    4.2860   -0.5660 n         1 MOL     -0.678549
     82 C25         1.1270    5.2400   -0.1230 c3        1 MOL      0.225412
     83 C26        -0.2160    4.5520    0.1950 c         1 MOL      0.506737
     84 O13        -0.3900    3.4180   -0.2450 o         1 MOL     -0.515798
     85 C27         1.1020    6.4040   -1.1180 c3        1 MOL     -0.170360
     86 C28         0.3530    7.6520   -0.6860 ca        1 MOL      0.007713
     87 C29        -0.6930    8.2130   -1.5300 ca        1 MOL     -0.118184
     88 C30         0.6600    8.2520    0.5530 ca        1 MOL     -0.118184
     89 C31        -1.4570    9.2470   -1.0470 ca        1 MOL     -0.254925
     90 C32        -0.0880    9.3820    0.9650 ca        1 MOL     -0.254925
     91 C33        -1.1480    9.7940    0.2050 ca        1 MOL      0.321878
     92 O14        -1.8680   10.8230    0.5820 oh        1 MOL     -0.458525
     93 H37         1.9410    3.3650   -0.9140 hn        1 MOL      0.344604
     94 H38         1.4450    5.5970    0.8530 h1        1 MOL      0.021156
     95 H39         0.6640    6.0660   -2.0540 hc        1 MOL      0.081737
     96 H40         2.1420    6.6470   -1.3090 hc        1 MOL      0.081737
     97 H41        -0.9870    7.7320   -2.4470 ha        1 MOL      0.131522
     98 H42         1.5610    7.9520    1.0700 ha        1 MOL      0.131522
     99 H43        -2.2840    9.6420   -1.6180 ha        1 MOL      0.143591
    100 H44         0.1670    9.8790    1.8860 ha        1 MOL      0.143591
    101 H45        -1.5960   11.1580    1.4400 ho        1 MOL      0.343162
    102 N10        -1.1160    5.1730    0.9280 n         1 MOL     -0.191315
    103 C34        -2.4230    4.5230    1.3270 c3        1 MOL     -0.513349
    104 C35        -3.4170    4.6360    0.0770 c         1 MOL      0.719052
    105 O15        -3.4610    5.6720   -0.5640 o         1 MOL     -0.529412
    106 C36        -3.1780    5.2080    2.5090 c3        1 MOL      0.157774
    107 C37        -2.6740    4.5060    3.7890 c3        1 MOL      0.050072
    108 C38        -2.7030    6.7200    2.5940 c3        1 MOL     -0.133325
    109 C39        -3.2500    4.9400    5.1290 c3        1 MOL     -0.369190
    110 H46        -0.8080    6.0280    1.3670 hn        1 MOL      0.166777
    111 H47        -2.2710    3.4480    1.4310 h1        1 MOL      0.192645
    112 H48        -4.2610    5.2180    2.3660 hc        1 MOL      0.044467
    113 H49        -1.5880    4.4780    3.8580 hc        1 MOL      0.030451
    114 H50        -2.8390    3.4310    3.7280 hc        1 MOL      0.030451
    115 H51        -2.9330    7.1630    1.6240 hc        1 MOL      0.040520
    116 H52        -3.3930    7.0780    3.3630 hc        1 MOL      0.040520
    117 H53        -1.6730    6.8670    2.9340 hc        1 MOL      0.040520
    118 H54        -4.2700    5.2920    5.0150 hc        1 MOL      0.089570
    119 H55        -3.3440    4.0890    5.8170 hc        1 MOL      0.089570
    120 H56        -2.5590    5.6750    5.5470 hc        1 MOL      0.089570
    121 N11        -4.0230    3.5010   -0.2580 n         1 MOL     -0.341251
    122 C40        -5.0610    3.2490   -1.2990 c3        1 MOL     -0.267144
    123 C41        -5.0910    1.8200   -1.7270 c         1 MOL      0.807191
    124 O16        -4.7580    0.9600   -0.9430 o         1 MOL     -0.460684
    125 C42        -6.3540    3.7450   -0.7710 c3        1 MOL      0.200370
    126 O17        -6.8550    3.0190    0.3110 oh        1 MOL     -0.573161
    127 H57        -3.7930    2.6880    0.2920 hn        1 MOL      0.196130
    128 H58        -4.8000    3.9430   -2.1030 h1        1 MOL      0.119637
    129 H59        -7.1060    3.6460   -1.5520 h1        1 MOL      0.005559
    130 H60        -6.3420    4.8200   -0.5670 h1        1 MOL      0.005559
    131 H61        -7.5890    3.5680    0.5830 ho        1 MOL      0.399295
    132 N12        -5.5880    1.6420   -2.9350 n         1 MOL     -0.757575
    133 C43        -5.9050    0.2790   -3.5110 c3        1 MOL      0.281451
    134 C44        -6.5540   -0.7540   -2.5940 c         1 MOL      0.519306
    135 O18        -6.2740   -1.9250   -2.7050 o         1 MOL     -0.538042
    136 C45        -4.6210   -0.1270   -4.2570 c3        1 MOL     -0.266173
    137 H62        -5.5890    2.4220   -3.5850 hn        1 MOL      0.375662
    138 H63        -6.6330    0.4670   -4.3080 h1        1 MOL      0.019042
    139 H64        -4.8090   -1.0070   -4.8760 hc        1 MOL      0.086970
    140 H65        -4.4190    0.6800   -4.9520 hc        1 MOL      0.086970
    141 H66        -3.7850   -0.2430   -3.5710 hc        1 MOL      0.086970
    142 N13        -7.3780   -0.3030   -1.6710 n         1 MOL     -0.432195
    143 C46        -8.0640   -1.1840   -0.6950 c3        1 MOL      0.056994
    144 C47        -7.1620   -2.1860    0.0630 c         1 MOL      0.875791
    145 O19        -7.2840   -3.4020   -0.1840 o         1 MOL     -0.583525
    146 C48        -9.2850   -1.8620   -1.4670 c3        1 MOL     -0.349121
    147 H67        -7.6260    0.6730   -1.6110 hn        1 MOL      0.279665
    148 H68        -8.4620   -0.4760    0.0300 h1        1 MOL      0.064805
    149 H69        -9.8500   -1.1090   -2.0250 hc        1 MOL      0.100015
    150 H70        -8.8350   -2.6120   -2.1170 hc        1 MOL      0.100015
    151 H71        -9.8390   -2.2360   -0.6020 hc        1 MOL      0.100015
    152 N14        -6.4870   -1.6990    1.1170 n         1 MOL     -0.995639
    153 C49        -5.6400   -2.6060    1.8860 c3        1 MOL      0.378790
    154 C50        -6.2820   -3.1610    3.2460 c         1 MOL      0.446903
    155 O20        -6.1390   -4.3410    3.5960 o         1 MOL     -0.515361
    156 C51        -4.2830   -1.9200    2.0980 c3        1 MOL      0.066887
    157 C52        -3.1980   -2.9760    2.3110 c3        1 MOL     -0.073219
    158 C53        -2.8170   -3.6660    1.0060 c         1 MOL      0.771367
    159 O21        -2.1050   -3.0310    0.2000 o         1 MOL     -0.749645
    160 O22        -3.2100   -4.8980    0.8080 o         1 MOL     -0.749645
    161 H72        -6.5290   -0.7160    1.3370 hn        1 MOL      0.361711
    162 H73        -5.4410   -3.4410    1.2230 h1        1 MOL      0.011492
    163 H74        -4.3780   -1.3680    3.0300 hc        1 MOL      0.006069
    164 H75        -3.9880   -1.3620    1.2110 hc        1 MOL      0.006069
    165 H76        -3.4100   -3.6660    3.1350 hc        1 MOL     -0.028891
    166 H77        -2.2910   -2.4190    2.5560 hc        1 MOL     -0.028891
    167 N15        -7.0380   -2.3230    3.9850 n         1 MOL     -0.310577
    168 C54        -7.6130   -2.6300    5.2850 c3        1 MOL     -0.267790
    169 H78        -8.6880   -2.4520    5.2580 h1        1 MOL      0.123351
    170 H79        -7.4250   -3.6760    5.5270 h1        1 MOL      0.123351
    171 H80        -7.1580   -1.9930    6.0440 h1        1 MOL      0.123351
    172 H81        -7.0120   -1.3510    3.7030 hn        1 MOL      0.250035
    173 Ca1        -2.2210   -5.0420   -1.6170 Ca        1 MOL      1.687609
    174 O23        -1.3690   -7.5200   -1.4240 oh        1 MOL     -0.867340
    175 H82        -1.6580   -8.3640   -1.7620 ho        1 MOL      0.427644
    176 H83        -0.5410   -7.7060   -0.9780 ho        1 MOL      0.427644
    177 O24         0.0700   -5.3050   -0.2140 oh        1 MOL     -0.867340
    178 H84         0.8870   -5.7600   -0.4220 ho        1 MOL      0.427644
    179 H85         0.0010   -5.3650    0.7380 ho        1 MOL      0.427644
    180 O25        -4.1980   -6.7220   -1.9700 oh        1 MOL     -0.867340
    181 H86        -4.4020   -7.5950   -2.3030 ho        1 MOL      0.427644
    182 H87        -5.0440   -6.3030   -1.8550 ho        1 MOL      0.427644
    183 O26        -2.6210   -5.0490   -4.2640 oh        1 MOL     -0.867340
    184 H88        -3.2980   -4.9370   -4.9250 ho        1 MOL      0.427644
    185 H89        -1.8930   -5.4530   -4.7300 ho        1 MOL      0.427644
    186 O27        -4.5330   -3.6830   -1.6570 oh        1 MOL     -0.867340
    187 H90        -4.8850   -2.9160   -2.1010 ho        1 MOL      0.427644
    188 H91        -5.2180   -4.3470   -1.7370 ho        1 MOL      0.427644
@<TRIPOS>BOND
     1    1    2 1   
     2    1    4 1   
     3    1    5 1   
     4    1    6 1   
     5    2    3 2   
     6    2    7 1   
     7    7    8 1   
     8    7   15 1   
     9    8    9 1   
    10    8   11 1   
    11    8   16 1   
    12    9   10 2   
    13    9   19 1   
    14   11   12 1   
    15   11   17 1   
    16   11   18 1   
    17   12   13 1   
    18   12   14 1   
    19   19   20 1   
    20   19   28 1   
    21   20   21 1   
    22   20   23 1   
    23   20   29 1   
    24   21   22 2   
    25   21   41 1   
    26   23   24 1   
    27   23   30 1   
    28   23   31 1   
    29   24   25 1   
    30   24   32 1   
    31   24   33 1   
    32   25   26 1   
    33   25   34 1   
    34   25   35 1   
    35   26   27 1   
    36   26   36 1   
    37   26   37 1   
    38   27   38 1   
    39   27   39 1   
    40   27   40 1   
    41   41   42 1   
    42   41   49 1   
    43   42   43 1   
    44   42   45 1   
    45   42   50 1   
    46   43   44 2   
    47   43   53 1   
    48   45   46 1   
    49   45   51 1   
    50   45   52 1   
    51   46   47 1   
    52   46   48 1   
    53   53   54 1   
    54   53   57 1   
    55   54   55 1   
    56   54   58 1   
    57   54   59 1   
    58   55   56 2   
    59   55   60 1   
    60   60   61 1   
    61   60   68 1   
    62   61   62 1   
    63   61   64 1   
    64   61   69 1   
    65   62   63 2   
    66   62   74 1   
    67   64   65 1   
    68   64   70 1   
    69   64   71 1   
    70   65   66 1   
    71   65   67 2   
    72   66   72 1   
    73   66   73 1   
    74   74   75 1   
    75   74   78 1   
    76   75   76 1   
    77   75   79 1   
    78   75   80 1   
    79   76   77 2   
    80   76   81 1   
    81   81   82 1   
    82   81   93 1   
    83   82   83 1   
    84   82   85 1   
    85   82   94 1   
    86   83   84 2   
    87   83  102 1   
    88   85   86 1   
    89   85   95 1   
    90   85   96 1   
    91   86   87 ar  
    92   86   88 ar  
    93   87   89 ar  
    94   87   97 1   
    95   88   90 ar  
    96   88   98 1   
    97   89   91 ar  
    98   89   99 1   
    99   90   91 ar  
   100   90  100 1   
   101   91   92 1   
   102   92  101 1   
   103  102  103 1   
   104  102  110 1   
   105  103  104 1   
   106  103  106 1   
   107  103  111 1   
   108  104  105 2   
   109  104  121 1   
   110  106  107 1   
   111  106  108 1   
   112  106  112 1   
   113  107  109 1   
   114  107  113 1   
   115  107  114 1   
   116  108  115 1   
   117  108  116 1   
   118  108  117 1   
   119  109  118 1   
   120  109  119 1   
   121  109  120 1   
   122  121  122 1   
   123  121  127 1   
   124  122  123 1   
   125  122  125 1   
   126  122  128 1   
   127  123  124 2   
   128  123  132 1   
   129  125  126 1   
   130  125  129 1   
   131  125  130 1   
   132  126  131 1   
   133  132  133 1   
   134  132  137 1   
   135  133  134 1   
   136  133  136 1   
   137  133  138 1   
   138  134  135 2   
   139  134  142 1   
   140  136  139 1   
   141  136  140 1   
   142  136  141 1   
   143  142  143 1   
   144  142  147 1   
   145  143  144 1   
   146  143  146 1   
   147  143  148 1   
   148  144  145 2   
   149  144  152 1   
   150  146  149 1   
   151  146  150 1   
   152  146  151 1   
   153  152  153 1   
   154  152  161 1   
   155  153  154 1   
   156  153  156 1   
   157  153  162 1   
   158  154  155 2   
   159  154  167 1   
   160  156  157 1   
   161  156  163 1   
   162  156  164 1   
   163  157  158 1   
   164  157  165 1   
   165  157  166 1   
   166  158  159 1   
   167  158  160 1   
   168  167  168 1   
   169  167  172 1   
   170  168  169 1   
   171  168  170 1   
   172  168  171 1   
   173  174  175 1   
   174  174  176 1   
   175  177  178 1   
   176  177  179 1   
   177  180  181 1   
   178  180  182 1   
   179  183  184 1   
   180  183  185 1   
   181  186  187 1   
   182  186  188 1   
@<TRIPOS>SUBSTRUCTURE
     1 MOL         1 TEMP              0 ****  ****    0 ROOT
