@<TRIPOS>MOLECULE
MOL
  179   176     1     0     0
SMALL
resp


@<TRIPOS>ATOM
      1 C1          0.7960   -4.7510    5.7250 c3        1 MOL     -0.383815
      2 C2          0.9980   -4.3540    4.2330 c         1 MOL      0.727689
      3 O1          0.0180   -4.3240    3.4980 o         1 MOL     -0.572867
      4 H1          1.7150   -4.5560    6.2790 hc        1 MOL      0.114371
      5 H2         -0.0160   -4.1630    6.1510 hc        1 MOL      0.114371
      6 H3          0.5510   -5.8110    5.7900 hc        1 MOL      0.114371
      7 N1          2.2220   -3.9580    3.8240 n         1 MOL     -0.632832
      8 C3          2.4980   -3.5540    2.4690 c3        1 MOL      0.130696
      9 C4          2.6150   -4.7900    1.4930 c         1 MOL      0.485682
     10 O2          3.1020   -5.8690    1.8450 o         1 MOL     -0.507664
     11 C5          3.6870   -2.6050    2.4550 c3        1 MOL     -0.309080
     12 C6          3.6970   -1.6490    1.2720 c         1 MOL      0.808409
     13 O3          4.0500   -0.4940    1.4310 o         1 MOL     -0.750355
     14 O4          3.5080   -2.0090    0.1070 o         1 MOL     -0.750355
     15 H4          2.9190   -4.0470    4.5500 hn        1 MOL      0.338267
     16 H5          1.6020   -3.0000    2.2000 h1        1 MOL      0.038187
     17 H6          4.5560   -3.2580    2.4960 hc        1 MOL      0.132900
     18 H7          3.7720   -1.9390    3.3220 hc        1 MOL      0.132900
     19 N2          2.2380   -4.5370    0.2160 n         1 MOL     -0.293544
     20 C7          2.4190   -5.4080   -0.9470 c3        1 MOL     -0.055271
     21 C8          3.7200   -5.2660   -1.7160 c         1 MOL      0.541694
     22 O5          4.1290   -6.2740   -2.2090 o         1 MOL     -0.535771
     23 C9          1.1270   -5.3940   -1.7810 c3        1 MOL     -0.116552
     24 C10         0.7780   -4.0350   -2.3880 c3        1 MOL      0.155250
     25 C11        -0.6070   -4.0710   -2.9950 c3        1 MOL      0.093065
     26 C12        -0.8620   -2.7360   -3.6380 c3        1 MOL     -0.068095
     27 N3         -2.2330   -2.5790   -4.2610 n4        1 MOL     -0.239218
     28 H8          1.8390   -3.6290    0.0690 hn        1 MOL      0.195014
     29 H9          2.4410   -6.4130   -0.5210 h1        1 MOL      0.134355
     30 H10         0.3330   -5.7820   -1.1380 hc        1 MOL      0.045337
     31 H11         1.1820   -6.1330   -2.5840 hc        1 MOL      0.045337
     32 H12         1.4860   -3.7280   -3.1590 hc        1 MOL     -0.052794
     33 H13         0.7150   -3.2130   -1.6690 hc        1 MOL     -0.052794
     34 H14        -1.3190   -4.2150   -2.1860 hc        1 MOL      0.001834
     35 H15        -0.6910   -4.8320   -3.7760 hc        1 MOL      0.001834
     36 H16        -0.1600   -2.6390   -4.4650 hx        1 MOL      0.075566
     37 H17        -0.6070   -1.9490   -2.9340 hx        1 MOL      0.075566
     38 H18        -2.3670   -1.8260   -4.9170 hn        1 MOL      0.256765
     39 H19        -2.3750   -3.3220   -4.9420 hn        1 MOL      0.256765
     40 H20        -3.0070   -2.7210   -3.6280 hn        1 MOL      0.256765
     41 N4          4.4600   -4.1280   -1.5770 n         1 MOL     -0.278776
     42 C13         5.6930   -3.8490   -2.2490 c3        1 MOL      0.214322
     43 C14         6.7590   -3.3610   -1.2630 c         1 MOL      0.349167
     44 O6          7.9660   -3.6620   -1.4160 o         1 MOL     -0.551332
     45 C15         5.4370   -2.6490   -3.2650 c3        1 MOL     -0.420491
     46 C16         4.6620   -1.4980   -2.6740 c         1 MOL      0.967660
     47 O7          3.5330   -1.1650   -3.1010 o         1 MOL     -0.811697
     48 O8          5.2170   -0.8050   -1.8370 o         1 MOL     -0.811697
     49 H21         3.9100   -3.3430   -1.2560 hn        1 MOL      0.132839
     50 H22         6.0140   -4.7710   -2.7360 h1        1 MOL      0.074813
     51 H23         4.8640   -3.0960   -4.0850 hc        1 MOL      0.109330
     52 H24         6.4080   -2.2580   -3.5380 hc        1 MOL      0.109330
     53 N5          6.4580   -2.6270   -0.2030 n         1 MOL     -0.008873
     54 C17         7.3690   -2.1620    0.8310 c3        1 MOL     -0.119035
     55 C18         7.7960   -0.6850    0.7520 c         1 MOL      0.473166
     56 O9          8.6460   -0.2220    1.5150 o         1 MOL     -0.548807
     57 H25         5.4750   -2.3790   -0.2210 hn        1 MOL     -0.149320
     58 H26         8.2980   -2.7330    0.7970 h1        1 MOL      0.099813
     59 H27         6.9530   -2.3790    1.8190 h1        1 MOL      0.099813
     60 N6          7.1110    0.1340   -0.1250 n         1 MOL     -0.176044
     61 C19         7.2970    1.5830   -0.3130 c3        1 MOL      0.052426
     62 C20         5.9700    2.3830   -0.3070 c         1 MOL      0.497857
     63 O10         4.8820    1.8000   -0.5710 o         1 MOL     -0.479374
     64 C21         8.0870    1.6630   -1.6150 c3        1 MOL     -0.554465
     65 C22         8.8410    2.9770   -1.8710 c         1 MOL      0.842085
     66 N7          9.9270    3.2810   -1.1750 n         1 MOL     -0.878944
     67 O11         8.4820    3.7480   -2.7210 o         1 MOL     -0.597287
     68 H28         6.4480   -0.3190   -0.7340 hn        1 MOL      0.299198
     69 H29         7.9470    1.9800    0.4590 h1        1 MOL      0.026897
     70 H30         7.4340    1.3920   -2.4470 hc        1 MOL      0.163786
     71 H31         8.8140    0.8490   -1.6100 hc        1 MOL      0.163786
     72 H32        10.2010    2.5820   -0.4970 hn        1 MOL      0.389908
     73 H33        10.5280    4.0840   -1.2750 hn        1 MOL      0.389908
     74 N8          5.9500    3.7140   -0.1710 n         1 MOL     -0.366150
     75 C23         4.7360    4.5140   -0.4690 c3        1 MOL     -0.212625
     76 C24         3.6810    4.4340    0.6550 c         1 MOL      0.629043
     77 O12         3.9710    4.1580    1.8050 o         1 MOL     -0.516396
     78 H34         6.8240    4.2120   -0.0640 hn        1 MOL      0.314489
     79 H35         4.3260    4.1820   -1.4210 h1        1 MOL      0.118821
     80 H36         5.0130    5.5690   -0.4670 h1        1 MOL      0.118821
     81 N9          2.4560    4.6490    0.2070 n         1 MOL     -0.499592
     82 C25         1.3020    4.3470    1.0310 c3        1 MOL      0.407081
     83 C26         1.0300    2.8040    1.1760 c         1 MOL      0.667569
     84 O13         1.6620    2.0710    0.4220 o         1 MOL     -0.701413
     85 C27         0.0750    5.0490    0.4350 c3        1 MOL     -0.258425
     86 C28         0.3640    6.6030    0.2670 ca        1 MOL      0.156899
     87 C29         0.0710    7.1910   -0.9840 ca        1 MOL     -0.254669
     88 C30         0.9200    7.3970    1.3130 ca        1 MOL     -0.254669
     89 C31         0.1650    8.5880   -1.1050 ca        1 MOL     -0.158554
     90 C32         1.0490    8.7560    1.2120 ca        1 MOL     -0.158554
     91 C33         0.6250    9.3610   -0.0060 ca        1 MOL      0.251994
     92 O14         0.6680   10.7270   -0.1660 oh        1 MOL     -0.468321
     93 H37         2.2520    4.9860   -0.7180 hn        1 MOL      0.223104
     94 H38         1.5280    4.8810    1.9620 h1        1 MOL      0.002131
     95 H39        -0.7800    5.0310    1.1100 hc        1 MOL      0.056772
     96 H40        -0.1260    4.5910   -0.5330 hc        1 MOL      0.056772
     97 H41        -0.3710    6.6160   -1.7860 ha        1 MOL      0.152714
     98 H42         1.1790    6.9670    2.2720 ha        1 MOL      0.152714
     99 H43        -0.0830    8.9920   -2.0820 ha        1 MOL      0.146446
    100 H44         1.3490    9.3910    2.0340 ha        1 MOL      0.146446
    101 H45         0.2990   11.1560   -0.9390 ho        1 MOL      0.365196
    102 N10         0.1580    2.3310    2.1070 n         1 MOL     -1.006359
    103 C34        -0.0680    0.9240    2.4730 c3        1 MOL      0.594199
    104 C35        -0.1650   -0.0840    1.2550 c         1 MOL      0.917579
    105 O15         0.7620   -0.5490    0.6470 o         1 MOL     -0.609108
    106 C36         1.0570    0.4620    3.5370 c3        1 MOL      0.089724
    107 C37         0.7790   -0.9340    4.0980 c3        1 MOL     -0.478684
    108 C38         1.2820    1.4180    4.7430 c3        1 MOL     -0.279046
    109 C39        -0.4420   -1.1580    5.0180 c3        1 MOL     -0.255910
    110 H46        -0.3720    3.0560    2.5720 hn        1 MOL      0.378315
    111 H47        -1.0300    0.8460    2.9880 h1        1 MOL     -0.038243
    112 H48         2.0420    0.4030    3.0780 hc        1 MOL      0.046656
    113 H49         1.6030   -1.2240    4.7500 hc        1 MOL      0.162475
    114 H50         0.6550   -1.5920    3.2450 hc        1 MOL      0.162475
    115 H51         0.3590    1.6120    5.3000 hc        1 MOL      0.088376
    116 H52         1.8840    0.7900    5.4000 hc        1 MOL      0.088376
    117 H53         1.8410    2.3020    4.4670 hc        1 MOL      0.088376
    118 H54        -1.3280   -0.6200    4.6950 hc        1 MOL      0.081628
    119 H55        -0.6900   -2.2160    4.9150 hc        1 MOL      0.081628
    120 H56        -0.1970   -0.8490    6.0380 hc        1 MOL      0.081628
    121 N11        -1.4320   -0.4300    1.0320 n         1 MOL     -1.030020
    122 C40        -1.9140   -1.5560    0.2750 c3        1 MOL      0.586156
    123 C41        -3.3240   -1.5290   -0.2140 c         1 MOL      0.279531
    124 O16        -3.6670   -2.2260   -1.2040 o         1 MOL     -0.531549
    125 C42        -1.7130   -2.8050    1.0410 c3        1 MOL      0.391159
    126 O17        -2.0060   -2.8130    2.4330 oh        1 MOL     -0.691348
    127 H57        -2.0990   -0.2090    1.7610 hn        1 MOL      0.355065
    128 H58        -1.3950   -1.6010   -0.6750 h1        1 MOL     -0.011919
    129 H59        -0.6530   -3.0690    1.0130 h1        1 MOL     -0.083474
    130 H60        -2.2670   -3.6120    0.5480 h1        1 MOL     -0.083474
    131 H61        -1.2330   -3.2240    2.8160 ho        1 MOL      0.436717
    132 N12        -4.2050   -0.7100    0.3500 n         1 MOL     -0.365445
    133 C43        -5.5970   -0.4940   -0.0060 c3        1 MOL      0.186400
    134 C44        -5.7840    0.3770   -1.2670 c         1 MOL      0.617944
    135 O18        -4.8940    1.1750   -1.5330 o         1 MOL     -0.576325
    136 C45        -6.2470    0.1230    1.2620 c3        1 MOL     -0.315955
    137 H62        -3.9120   -0.1700    1.1590 hn        1 MOL      0.251611
    138 H63        -6.0880   -1.4490   -0.2070 h1        1 MOL      0.075063
    139 H64        -7.3190    0.2460    1.0930 hc        1 MOL      0.103535
    140 H65        -6.0700   -0.5210    2.1230 hc        1 MOL      0.103535
    141 H66        -5.8360    1.1270    1.3100 hc        1 MOL      0.103535
    142 N13        -6.9280    0.2870   -2.0060 n         1 MOL     -0.691937
    143 C46        -8.2020   -0.4160   -1.7590 c3        1 MOL      0.447819
    144 C47        -9.3620    0.5440   -2.0860 c         1 MOL      0.379083
    145 O19        -9.4140    1.1820   -3.1640 o         1 MOL     -0.529358
    146 C48        -8.1490   -1.8140   -2.3960 c3        1 MOL     -0.428274
    147 H67        -6.9460    0.8460   -2.8470 hn        1 MOL      0.328611
    148 H68        -8.2060   -0.5230   -0.6720 h1        1 MOL     -0.040159
    149 H69        -9.1170   -2.2820   -2.2110 hc        1 MOL      0.123211
    150 H70        -8.0330   -1.6800   -3.4690 hc        1 MOL      0.123211
    151 H71        -7.3340   -2.3840   -1.9410 hc        1 MOL      0.123211
    152 N14       -10.4180    0.6500   -1.2290 n         1 MOL     -0.277025
    153 C49       -10.6720    0.0930    0.1060 c3        1 MOL     -0.384643
    154 C50       -10.1010    1.0630    1.1440 c         1 MOL      0.487462
    155 O20        -9.7800    0.5830    2.2420 o         1 MOL     -0.522166
    156 C51       -12.1970   -0.2130    0.2880 c3        1 MOL      0.268272
    157 C52       -12.8100   -1.0630   -0.8530 c3        1 MOL     -0.231645
    158 C53       -14.2790   -1.3040   -0.6130 c         1 MOL      0.694698
    159 O21       -14.5910   -2.2070    0.2050 o         1 MOL     -0.671011
    160 O22       -15.0490   -0.5010   -1.1600 o         1 MOL     -0.671011
    161 H72       -11.0800    1.3580   -1.5060 hn        1 MOL      0.293358
    162 H73       -10.1990   -0.8710    0.3200 h1        1 MOL      0.174130
    163 H74       -12.7410    0.7340    0.2410 hc        1 MOL     -0.000623
    164 H75       -12.4600   -0.5360    1.2940 hc        1 MOL     -0.000623
    165 H76       -12.3210   -2.0390   -0.9270 hc        1 MOL      0.018634
    166 H77       -12.6190   -0.4970   -1.7650 hc        1 MOL      0.018634
    167 N15        -9.8150    2.3140    0.7980 n         1 MOL     -0.251571
    168 C54        -9.0910    3.2540    1.6380 c3        1 MOL     -0.217701
    169 H78        -8.0190    3.0940    1.5210 h1        1 MOL      0.105442
    170 H79        -9.3400    4.2730    1.3430 h1        1 MOL      0.105442
    171 H80        -9.3690    3.0990    2.6800 h1        1 MOL      0.105442
    172 H81       -10.0570    2.5620   -0.1470 hn        1 MOL      0.238992
    173 Ca1         2.8740    0.1930   -0.9810 Ca        1 MOL      1.747300
    174 O23         0.4540    0.3640   -2.1960 oh        1 MOL     -0.815973
    175 H82        -0.3890    0.5800   -1.7960 ho        1 MOL      0.408081
    176 H83         0.3110    0.4480   -3.1350 ho        1 MOL      0.408081
    177 O24         2.6030    2.1520   -2.8040 oh        1 MOL     -0.815973
    178 H84         3.1100    2.6760   -3.4150 ho        1 MOL      0.408081
    179 H85         1.7010    2.4610   -2.9050 ho        1 MOL      0.408081
@<TRIPOS>BOND
     1    1    2 1   
     2    1    4 1   
     3    1    5 1   
     4    1    6 1   
     5    2    3 2   
     6    2    7 1   
     7    7    8 1   
     8    7   15 1   
     9    8    9 1   
    10    8   11 1   
    11    8   16 1   
    12    9   10 2   
    13    9   19 1   
    14   11   12 1   
    15   11   17 1   
    16   11   18 1   
    17   12   13 1   
    18   12   14 1   
    19   19   20 1   
    20   19   28 1   
    21   20   21 1   
    22   20   23 1   
    23   20   29 1   
    24   21   22 2   
    25   21   41 1   
    26   23   24 1   
    27   23   30 1   
    28   23   31 1   
    29   24   25 1   
    30   24   32 1   
    31   24   33 1   
    32   25   26 1   
    33   25   34 1   
    34   25   35 1   
    35   26   27 1   
    36   26   36 1   
    37   26   37 1   
    38   27   38 1   
    39   27   39 1   
    40   27   40 1   
    41   41   42 1   
    42   41   49 1   
    43   42   43 1   
    44   42   45 1   
    45   42   50 1   
    46   43   44 2   
    47   43   53 1   
    48   45   46 1   
    49   45   51 1   
    50   45   52 1   
    51   46   47 1   
    52   46   48 1   
    53   53   54 1   
    54   53   57 1   
    55   54   55 1   
    56   54   58 1   
    57   54   59 1   
    58   55   56 2   
    59   55   60 1   
    60   60   61 1   
    61   60   68 1   
    62   61   62 1   
    63   61   64 1   
    64   61   69 1   
    65   62   63 2   
    66   62   74 1   
    67   64   65 1   
    68   64   70 1   
    69   64   71 1   
    70   65   66 1   
    71   65   67 2   
    72   66   72 1   
    73   66   73 1   
    74   74   75 1   
    75   74   78 1   
    76   75   76 1   
    77   75   79 1   
    78   75   80 1   
    79   76   77 2   
    80   76   81 1   
    81   81   82 1   
    82   81   93 1   
    83   82   83 1   
    84   82   85 1   
    85   82   94 1   
    86   83   84 2   
    87   83  102 1   
    88   85   86 1   
    89   85   95 1   
    90   85   96 1   
    91   86   87 ar  
    92   86   88 ar  
    93   87   89 ar  
    94   87   97 1   
    95   88   90 ar  
    96   88   98 1   
    97   89   91 ar  
    98   89   99 1   
    99   90   91 ar  
   100   90  100 1   
   101   91   92 1   
   102   92  101 1   
   103  102  103 1   
   104  102  110 1   
   105  103  104 1   
   106  103  106 1   
   107  103  111 1   
   108  104  105 2   
   109  104  121 1   
   110  106  107 1   
   111  106  108 1   
   112  106  112 1   
   113  107  109 1   
   114  107  113 1   
   115  107  114 1   
   116  108  115 1   
   117  108  116 1   
   118  108  117 1   
   119  109  118 1   
   120  109  119 1   
   121  109  120 1   
   122  121  122 1   
   123  121  127 1   
   124  122  123 1   
   125  122  125 1   
   126  122  128 1   
   127  123  124 2   
   128  123  132 1   
   129  125  126 1   
   130  125  129 1   
   131  125  130 1   
   132  126  131 1   
   133  132  133 1   
   134  132  137 1   
   135  133  134 1   
   136  133  136 1   
   137  133  138 1   
   138  134  135 2   
   139  134  142 1   
   140  136  139 1   
   141  136  140 1   
   142  136  141 1   
   143  142  143 1   
   144  142  147 1   
   145  143  144 1   
   146  143  146 1   
   147  143  148 1   
   148  144  145 2   
   149  144  152 1   
   150  146  149 1   
   151  146  150 1   
   152  146  151 1   
   153  152  153 1   
   154  152  161 1   
   155  153  154 1   
   156  153  156 1   
   157  153  162 1   
   158  154  155 2   
   159  154  167 1   
   160  156  157 1   
   161  156  163 1   
   162  156  164 1   
   163  157  158 1   
   164  157  165 1   
   165  157  166 1   
   166  158  159 1   
   167  158  160 1   
   168  167  168 1   
   169  167  172 1   
   170  168  169 1   
   171  168  170 1   
   172  168  171 1   
   173  174  175 1   
   174  174  176 1   
   175  177  178 1   
   176  177  179 1   
@<TRIPOS>SUBSTRUCTURE
     1 MOL         1 TEMP              0 ****  ****    0 ROOT
