@<TRIPOS>MOLECULE
MOL
  195   189     1     0     0
SMALL
resp


@<TRIPOS>ATOM
      1 C1         -4.2930   -3.6390    2.6110 c3        1 MOL     -0.318074
      2 C2         -3.1600   -3.7650    1.5970 c         1 MOL      0.539044
      3 O1         -2.7430   -2.7360    1.0510 o         1 MOL     -0.474836
      4 H1         -4.9410   -4.5130    2.5420 hc        1 MOL      0.081536
      5 H2         -3.8760   -3.5750    3.6170 hc        1 MOL      0.081536
      6 H3         -4.8730   -2.7400    2.3990 hc        1 MOL      0.081536
      7 N1         -2.7020   -4.9780    1.3710 n         1 MOL     -0.874907
      8 C3         -1.5730   -5.3080    0.4960 c3        1 MOL      0.013196
      9 C4         -0.2230   -4.6750    0.9520 c         1 MOL      0.658502
     10 O2          0.7110   -4.7010    0.1890 o         1 MOL     -0.522503
     11 C5         -1.9110   -5.0300   -1.0020 c3        1 MOL     -0.084056
     12 C6         -3.0830   -5.8270   -1.6420 c         1 MOL      0.704180
     13 O3         -4.3010   -5.7360   -1.2730 o         1 MOL     -0.700232
     14 O4         -2.7520   -6.5580   -2.6010 o         1 MOL     -0.700232
     15 H4         -3.1760   -5.6450    1.9500 hn        1 MOL      0.454997
     16 H5         -1.4610   -6.3880    0.4320 h1        1 MOL      0.131691
     17 H6         -0.9940   -5.3100   -1.5170 hc        1 MOL      0.039170
     18 H7         -1.9740   -3.9640   -1.2150 hc        1 MOL      0.039170
     19 N2         -0.1480   -4.2020    2.2310 n         1 MOL     -0.529041
     20 C7          1.0900   -3.5920    2.7730 c3        1 MOL     -0.385451
     21 C8          2.2670   -4.4850    3.0170 c         1 MOL      0.708433
     22 O5          2.1250   -5.6120    3.4970 o         1 MOL     -0.597020
     23 C9          0.7860   -2.7690    4.0090 c3        1 MOL      0.150278
     24 C10         0.1130   -3.5360    5.1410 c3        1 MOL      0.154344
     25 C11         0.1900   -1.3850    3.6860 c3        1 MOL     -0.348361
     26 C12         0.1080   -2.7820    6.4760 c3        1 MOL     -0.215815
     27 H8         -0.9170   -4.2100    2.8800 hn        1 MOL      0.411568
     28 H9          1.3670   -2.9740    1.9220 h1        1 MOL      0.155410
     29 H10         1.7540   -2.3890    4.3510 hc        1 MOL      0.086207
     30 H11         0.6190   -4.4930    5.2250 hc        1 MOL     -0.023118
     31 H12        -0.8880   -3.8200    4.8050 hc        1 MOL     -0.023118
     32 H13         0.8830   -0.8710    3.0220 hc        1 MOL      0.096782
     33 H14        -0.7960   -1.6170    3.2880 hc        1 MOL      0.096782
     34 H15         0.0700   -0.7440    4.5600 hc        1 MOL      0.096782
     35 H16         1.0910   -2.3010    6.5430 hc        1 MOL      0.043485
     36 H17        -0.6820   -2.0390    6.5400 hc        1 MOL      0.043485
     37 H18        -0.0480   -3.4540    7.3140 hc        1 MOL      0.043485
     38 N3          3.4940   -4.1160    2.7600 n         1 MOL     -0.456457
     39 C13         4.0070   -2.8640    2.2800 c3        1 MOL     -0.343495
     40 C14         4.6030   -2.8990    0.8070 c         1 MOL      0.630849
     41 O6          4.9460   -1.7950    0.2650 o         1 MOL     -0.564272
     42 C15         5.1190   -2.4350    3.2310 c3        1 MOL     -0.011861
     43 C16         6.2970   -3.4070    3.4110 c         1 MOL      0.718021
     44 O7          7.3800   -2.8810    3.6520 o         1 MOL     -0.706701
     45 O8          6.1520   -4.6420    3.3790 o         1 MOL     -0.706701
     46 H19         4.1820   -4.8400    2.9180 hn        1 MOL      0.269234
     47 H20         3.2710   -2.0580    2.3800 h1        1 MOL      0.148709
     48 H21         4.6720   -2.2170    4.2070 hc        1 MOL      0.017788
     49 H22         5.5880   -1.5240    2.8630 hc        1 MOL      0.017788
     50 N4          4.9250   -4.1170    0.2900 n         1 MOL     -0.245526
     51 C17         5.5240   -4.2980   -1.0580 c3        1 MOL     -0.381240
     52 C18         6.6490   -3.3540   -1.4420 c         1 MOL      0.575470
     53 O9          7.7520   -3.4730   -0.9550 o         1 MOL     -0.548881
     54 H23         4.8690   -4.9420    0.8670 hn        1 MOL      0.296709
     55 H24         4.7430   -4.2010   -1.8170 h1        1 MOL      0.142858
     56 H25         6.0190   -5.2640   -0.9910 h1        1 MOL      0.142858
     57 N5          6.3950   -2.4780   -2.4230 n         1 MOL     -0.422781
     58 C19         7.3980   -1.5740   -2.9800 c3        1 MOL      0.105369
     59 C20         8.1740   -0.7410   -1.9040 c         1 MOL      0.354350
     60 O10         9.1780   -0.0800   -2.2630 o         1 MOL     -0.578225
     61 C21         6.6060   -0.6850   -4.0300 c3        1 MOL     -0.509010
     62 C22         5.2460   -0.0640   -3.6210 c         1 MOL      0.813952
     63 O11         5.0750    0.5610   -2.5650 o         1 MOL     -0.719835
     64 O12         4.2530   -0.3340   -4.3470 o         1 MOL     -0.719835
     65 H26         5.5530   -2.5880   -2.9770 hn        1 MOL      0.304031
     66 H27         8.0350   -2.2870   -3.4990 h1        1 MOL      0.067668
     67 H28         6.6400   -1.3180   -4.9140 hc        1 MOL      0.110501
     68 H29         7.2420    0.1800   -4.2140 hc        1 MOL      0.110501
     69 N6          7.6530   -0.7140   -0.6820 n         1 MOL     -0.028113
     70 C23         8.1960    0.1260    0.3560 c3        1 MOL     -0.279775
     71 C24         7.7760    1.6200    0.1550 c         1 MOL      0.412372
     72 O13         8.3080    2.5320    0.7770 o         1 MOL     -0.524513
     73 H30         6.8400   -1.3030   -0.5390 hn        1 MOL      0.272975
     74 H31         9.2820   -0.0140    0.2970 h1        1 MOL      0.134948
     75 H32         7.8930   -0.2440    1.3390 h1        1 MOL      0.134948
     76 N7          6.7940    1.9710   -0.7480 n         1 MOL     -0.008131
     77 C25         6.3610    3.3280   -1.0910 c3        1 MOL      0.112880
     78 C26         5.6540    4.1030    0.0830 c         1 MOL      0.247781
     79 O14         5.7480    5.3250    0.1400 o         1 MOL     -0.505279
     80 C27         7.5090    4.0660   -1.7780 c3        1 MOL      0.100206
     81 C28         8.4360    3.2130   -2.6910 c3        1 MOL     -0.161146
     82 C29         9.6740    4.0570   -3.1700 c         1 MOL      0.703912
     83 N8         10.5390    3.5180   -3.9620 n         1 MOL     -0.823295
     84 O15         9.7920    5.2030   -2.9140 o         1 MOL     -0.584743
     85 H33         6.4560    1.2620   -1.3900 hn        1 MOL      0.092545
     86 H34         5.6480    3.0160   -1.8640 h1        1 MOL      0.026775
     87 H35         8.0710    4.5760   -0.9960 hc        1 MOL     -0.023336
     88 H36         7.1490    4.8160   -2.4790 hc        1 MOL     -0.023336
     89 H37         7.8240    2.8790   -3.5280 hc        1 MOL      0.044771
     90 H38         8.8540    2.3800   -2.1350 hc        1 MOL      0.044771
     91 H39        10.3240    2.5730   -4.2720 hn        1 MOL      0.352743
     92 H40        11.3800    4.0310   -4.1670 hn        1 MOL      0.352743
     93 N9          5.0030    3.3680    0.9480 n         1 MOL     -0.004433
     94 C30         4.2200    3.8070    2.1200 c3        1 MOL     -0.121326
     95 C31         2.7120    3.7290    1.9110 c         1 MOL      0.683217
     96 O16         1.9830    4.3130    2.7200 o         1 MOL     -0.585129
     97 C32         4.6260    3.0630    3.3710 c3        1 MOL      0.416202
     98 C33         4.6470    1.5840    3.3160 c3        1 MOL     -0.293491
     99 C34         6.0240    3.5700    3.8520 c3        1 MOL     -0.293491
    100 H41         5.0600    2.3770    0.7590 hn        1 MOL      0.022512
    101 H42         4.3570    4.8860    2.2620 h1        1 MOL      0.069410
    102 H43         3.9750    3.3920    4.1830 hc        1 MOL     -0.080237
    103 H44         3.6130    1.3150    3.0780 hc        1 MOL      0.057407
    104 H45         5.3520    1.2420    2.5450 hc        1 MOL      0.057407
    105 H46         5.0020    1.1260    4.2410 hc        1 MOL      0.057407
    106 H47         6.7800    3.3300    3.1030 hc        1 MOL      0.057407
    107 H48         5.9450    4.6210    4.1180 hc        1 MOL      0.057407
    108 H49         6.2680    3.0240    4.7720 hc        1 MOL      0.057407
    109 N10         2.2840    2.9560    0.9360 n         1 MOL     -0.666795
    110 C35         0.8290    2.6140    0.8590 c3        1 MOL      0.187583
    111 C36        -0.0330    3.5950   -0.0190 c         1 MOL      0.528715
    112 O17         0.4520    4.5210   -0.6400 o         1 MOL     -0.520522
    113 C37         0.8210    1.2000    0.3500 c3        1 MOL     -0.072575
    114 C38        -0.4700    0.3910    0.5960 c         1 MOL      0.560602
    115 N11        -0.5000   -0.8930    0.2470 n         1 MOL     -0.559378
    116 O18        -1.4610    0.8570    1.1510 o         1 MOL     -0.572818
    117 H50         2.8950    2.4020    0.3540 hn        1 MOL      0.328980
    118 H51         0.4690    2.5840    1.8860 h1        1 MOL      0.041122
    119 H52         1.6310    0.6520    0.8230 hc        1 MOL      0.054160
    120 H53         0.9870    1.1520   -0.7260 hc        1 MOL      0.054160
    121 H54         0.3150   -1.2900   -0.1870 hn        1 MOL      0.287762
    122 H55        -1.3190   -1.4110    0.5300 hn        1 MOL      0.287762
    123 N12        -1.3420    3.3210   -0.1340 n         1 MOL     -0.448624
    124 C39        -2.2990    4.1610   -0.8980 c3        1 MOL      0.116727
    125 C40        -3.7280    3.9560   -0.2190 c         1 MOL      0.442975
    126 O19        -3.9880    2.9360    0.4050 o         1 MOL     -0.422684
    127 C41        -2.3830    3.7090   -2.4040 c3        1 MOL     -0.164463
    128 C42        -2.3520    2.2050   -2.6080 ca        1 MOL      0.174138
    129 C43        -1.1740    1.5310   -2.9270 ca        1 MOL     -0.205634
    130 C44        -3.5540    1.5190   -2.6900 ca        1 MOL     -0.205634
    131 C45        -1.1280    0.1360   -3.1180 ca        1 MOL     -0.219233
    132 C46        -3.5750    0.1600   -3.0460 ca        1 MOL     -0.219233
    133 C47        -2.3780   -0.5670   -3.1990 ca        1 MOL      0.307692
    134 O20        -2.3960   -1.9050   -3.3960 oh        1 MOL     -0.579169
    135 H56        -1.6460    2.4890    0.3510 hn        1 MOL      0.215639
    136 H57        -2.0850    5.2300   -0.8050 h1        1 MOL      0.082823
    137 H58        -1.5500    4.1130   -2.9860 hc        1 MOL      0.050449
    138 H59        -3.3040    4.1190   -2.8190 hc        1 MOL      0.050449
    139 H60        -0.2610    2.1250   -2.9280 ha        1 MOL      0.167653
    140 H61        -4.5270    1.9590   -2.5230 ha        1 MOL      0.167653
    141 H62        -0.2020   -0.4290   -3.1720 ha        1 MOL      0.125692
    142 H63        -4.4470   -0.4540   -3.2240 ha        1 MOL      0.125692
    143 H64        -1.5930   -2.3930   -3.2200 ho        1 MOL      0.438865
    144 N13        -4.7050    4.9000   -0.4520 n         1 MOL     -0.403719
    145 C48        -6.0780    4.9050    0.0010 c3        1 MOL     -0.032422
    146 C49        -7.0480    4.1730   -0.9600 c         1 MOL      0.678293
    147 O21        -7.3540    4.7110   -1.9760 o         1 MOL     -0.596812
    148 C50        -6.4950    6.3280    0.3750 c3        1 MOL      0.066523
    149 C51        -5.8860    6.9120    1.6870 c3        1 MOL     -0.247194
    150 C52        -6.2480    8.4080    1.8520 c         1 MOL      0.752621
    151 O22        -7.3690    8.7080    2.3140 o         1 MOL     -0.734318
    152 O23        -5.4870    9.2580    1.4270 o         1 MOL     -0.734318
    153 H65        -4.4070    5.7250   -0.9410 hn        1 MOL      0.277855
    154 H66        -6.2350    4.3950    0.9600 h1        1 MOL      0.084650
    155 H67        -7.5620    6.5450    0.2950 hc        1 MOL      0.021186
    156 H68        -6.1210    6.9430   -0.4390 hc        1 MOL      0.021186
    157 H69        -4.8120    6.9200    1.5140 hc        1 MOL      0.019894
    158 H70        -6.0940    6.3760    2.6180 hc        1 MOL      0.019894
    159 N14        -7.5790    2.9800   -0.7340 n         1 MOL     -0.660470
    160 C53        -7.2890    2.0190    0.4190 c3        1 MOL      0.238317
    161 C54        -8.0260    2.2720    1.6980 c         1 MOL      0.529887
    162 O24        -8.8850    3.1580    1.7910 o         1 MOL     -0.519466
    163 C55        -7.1500    0.6020   -0.0530 c3        1 MOL      0.274943
    164 C56        -8.4620    0.0010   -0.4220 c3        1 MOL     -0.450219
    165 C57        -8.2640   -1.1280   -1.4640 c         1 MOL      0.853245
    166 O25        -7.6720   -2.1690   -1.0580 o         1 MOL     -0.736027
    167 O26        -8.5550   -0.9750   -2.7090 o         1 MOL     -0.736027
    168 H71        -7.9360    2.5420   -1.5720 hn        1 MOL      0.352900
    169 H72        -6.2470    2.1970    0.6770 h1        1 MOL     -0.097562
    170 H73        -6.7390    0.0400    0.7960 hc        1 MOL     -0.061573
    171 H74        -6.4710    0.4940   -0.8920 hc        1 MOL     -0.061573
    172 H75        -9.0670    0.7970   -0.8570 hc        1 MOL      0.065074
    173 H76        -8.9200   -0.4370    0.4620 hc        1 MOL      0.065074
    174 N15        -7.6790    1.5150    2.7570 n         1 MOL     -0.368128
    175 C58        -8.3670    1.5340    4.0940 c3        1 MOL     -0.240096
    176 H77        -8.6800    2.5520    4.3260 h1        1 MOL      0.113119
    177 H78        -9.2410    0.8840    4.0640 h1        1 MOL      0.113119
    178 H79        -7.6780    1.1830    4.8630 h1        1 MOL      0.113119
    179 H80        -6.9720    0.8120    2.6220 hn        1 MOL      0.290713
    180 Ca1        -6.2780   -4.0910   -1.5290 Ca        1 MOL      1.778666
    181 O27        -4.7180   -2.0050   -0.6370 oh        1 MOL     -0.907331
    182 H81        -4.9980   -1.1160   -0.3860 ho        1 MOL      0.428872
    183 H82        -3.7860   -2.0290   -0.4130 ho        1 MOL      0.428872
    184 O28        -7.3650   -3.0620   -3.9220 oh        1 MOL     -0.907331
    185 H83        -7.6950   -2.2870   -3.4730 ho        1 MOL      0.428872
    186 H84        -7.2030   -2.7780   -4.8200 ho        1 MOL      0.428872
    187 O29        -4.5970   -3.6220   -3.5110 oh        1 MOL     -0.907331
    188 O30        -6.5650   -6.3930   -2.9330 oh        1 MOL     -0.907331
    189 H85        -4.6120   -4.0190   -4.3830 ho        1 MOL      0.428872
    190 H86        -7.3390   -6.9010   -3.1430 ho        1 MOL      0.428872
    191 H87        -3.8230   -3.0660   -3.5140 ho        1 MOL      0.428872
    192 H88        -5.8380   -6.9000   -3.2930 ho        1 MOL      0.428872
    193 O31        -8.6720   -4.9690   -0.8820 oh        1 MOL     -0.907331
    194 H89        -9.4910   -4.7020   -1.3020 ho        1 MOL      0.428872
    195 H90        -8.8740   -5.8190   -0.4710 ho        1 MOL      0.428872
@<TRIPOS>BOND
     1    1    2 1   
     2    1    4 1   
     3    1    5 1   
     4    1    6 1   
     5    2    3 2   
     6    2    7 1   
     7    7    8 1   
     8    7   15 1   
     9    8    9 1   
    10    8   11 1   
    11    8   16 1   
    12    9   10 2   
    13    9   19 1   
    14   11   12 1   
    15   11   17 1   
    16   11   18 1   
    17   12   13 1   
    18   12   14 1   
    19   19   20 1   
    20   19   27 1   
    21   20   21 1   
    22   20   23 1   
    23   20   28 1   
    24   21   22 2   
    25   21   38 1   
    26   23   24 1   
    27   23   25 1   
    28   23   29 1   
    29   24   26 1   
    30   24   30 1   
    31   24   31 1   
    32   25   32 1   
    33   25   33 1   
    34   25   34 1   
    35   26   35 1   
    36   26   36 1   
    37   26   37 1   
    38   38   39 1   
    39   38   46 1   
    40   39   40 1   
    41   39   42 1   
    42   39   47 1   
    43   40   41 2   
    44   40   50 1   
    45   42   43 1   
    46   42   48 1   
    47   42   49 1   
    48   43   44 1   
    49   43   45 1   
    50   50   51 1   
    51   50   54 1   
    52   51   52 1   
    53   51   55 1   
    54   51   56 1   
    55   52   53 2   
    56   52   57 1   
    57   57   58 1   
    58   57   65 1   
    59   58   59 1   
    60   58   61 1   
    61   58   66 1   
    62   59   60 2   
    63   59   69 1   
    64   61   62 1   
    65   61   67 1   
    66   61   68 1   
    67   62   63 1   
    68   62   64 1   
    69   69   70 1   
    70   69   73 1   
    71   70   71 1   
    72   70   74 1   
    73   70   75 1   
    74   71   72 2   
    75   71   76 1   
    76   76   77 1   
    77   76   85 1   
    78   77   78 1   
    79   77   80 1   
    80   77   86 1   
    81   78   79 2   
    82   78   93 1   
    83   80   81 1   
    84   80   87 1   
    85   80   88 1   
    86   81   82 1   
    87   81   89 1   
    88   81   90 1   
    89   82   83 1   
    90   82   84 2   
    91   83   91 1   
    92   83   92 1   
    93   93   94 1   
    94   93  100 1   
    95   94   95 1   
    96   94   97 1   
    97   94  101 1   
    98   95   96 2   
    99   95  109 1   
   100   97   98 1   
   101   97   99 1   
   102   97  102 1   
   103   98  103 1   
   104   98  104 1   
   105   98  105 1   
   106   99  106 1   
   107   99  107 1   
   108   99  108 1   
   109  109  110 1   
   110  109  117 1   
   111  110  111 1   
   112  110  113 1   
   113  110  118 1   
   114  111  112 2   
   115  111  123 1   
   116  113  114 1   
   117  113  119 1   
   118  113  120 1   
   119  114  115 1   
   120  114  116 2   
   121  115  121 1   
   122  115  122 1   
   123  123  124 1   
   124  123  135 1   
   125  124  125 1   
   126  124  127 1   
   127  124  136 1   
   128  125  126 2   
   129  125  144 1   
   130  127  128 1   
   131  127  137 1   
   132  127  138 1   
   133  128  129 ar  
   134  128  130 ar  
   135  129  131 ar  
   136  129  139 1   
   137  130  132 ar  
   138  130  140 1   
   139  131  133 ar  
   140  131  141 1   
   141  132  133 ar  
   142  132  142 1   
   143  133  134 1   
   144  134  143 1   
   145  144  145 1   
   146  144  153 1   
   147  145  146 1   
   148  145  148 1   
   149  145  154 1   
   150  146  147 2   
   151  146  159 1   
   152  148  149 1   
   153  148  155 1   
   154  148  156 1   
   155  149  150 1   
   156  149  157 1   
   157  149  158 1   
   158  150  151 1   
   159  150  152 1   
   160  159  160 1   
   161  159  168 1   
   162  160  161 1   
   163  160  163 1   
   164  160  169 1   
   165  161  162 2   
   166  161  174 1   
   167  163  164 1   
   168  163  170 1   
   169  163  171 1   
   170  164  165 1   
   171  164  172 1   
   172  164  173 1   
   173  165  166 1   
   174  165  167 1   
   175  174  175 1   
   176  174  179 1   
   177  175  176 1   
   178  175  177 1   
   179  175  178 1   
   180  181  182 1   
   181  181  183 1   
   182  184  185 1   
   183  184  186 1   
   184  187  189 1   
   185  187  191 1   
   186  188  190 1   
   187  188  192 1   
   188  193  194 1   
   189  193  195 1   
@<TRIPOS>SUBSTRUCTURE
     1 MOL         1 TEMP              0 ****  ****    0 ROOT
