@<TRIPOS>MOLECULE
MOL
  185   180     1     0     0
SMALL
resp


@<TRIPOS>ATOM
      1 C1          5.9650   -1.6070    5.7380 c3        1 MOL     -0.405556
      2 C2          5.2060   -0.8300    4.6470 c         1 MOL      0.613420
      3 O1          4.0230   -0.4580    4.7810 o         1 MOL     -0.587705
      4 H1          5.8620   -1.0880    6.6910 hc        1 MOL      0.101901
      5 H2          5.5490   -2.6110    5.8250 hc        1 MOL      0.101901
      6 H3          7.0190   -1.6730    5.4710 hc        1 MOL      0.101901
      7 N1          5.9300   -0.6330    3.5420 n         1 MOL     -0.325006
      8 C3          5.4330    0.0740    2.3360 c3        1 MOL     -0.079466
      9 C4          4.6000   -0.8460    1.3910 c         1 MOL      0.535068
     10 O2          3.5160   -0.4540    0.8830 o         1 MOL     -0.627329
     11 C5          6.5890    0.7580    1.5670 c3        1 MOL     -0.107506
     12 C6          7.7180   -0.1830    1.0130 c         1 MOL      0.697930
     13 O3          7.9390   -1.2580    1.6110 o         1 MOL     -0.657721
     14 O4          8.4380    0.1720    0.0700 o         1 MOL     -0.657721
     15 H4          6.9010   -0.9340    3.5750 hn        1 MOL      0.203456
     16 H5          4.8130    0.8800    2.7160 h1        1 MOL      0.137306
     17 H6          7.0370    1.4890    2.2450 hc        1 MOL      0.040206
     18 H7          6.2250    1.2980    0.7020 hc        1 MOL      0.040206
     19 N2          5.0020   -2.1250    1.3500 n         1 MOL     -0.284694
     20 C7          4.5350   -3.2880    0.4990 c3        1 MOL     -0.148394
     21 C8          4.7900   -3.0310   -0.9960 c         1 MOL      0.528262
     22 O5          5.9640   -3.0780   -1.4090 o         1 MOL     -0.467803
     23 C9          5.2370   -4.6250    0.9250 c3        1 MOL      0.080636
     24 C10         4.8230   -5.1680    2.2970 c3        1 MOL     -0.041521
     25 C11         5.8900   -5.9410    3.1040 c3        1 MOL     -0.011805
     26 C12         5.3110   -6.4810    4.4760 c3        1 MOL      0.033420
     27 N3          6.0660   -7.6620    4.9860 n4        1 MOL     -0.385889
     28 H8          5.8300   -2.3000    1.9100 hn        1 MOL      0.197610
     29 H9          3.4500   -3.4220    0.6210 h1        1 MOL      0.135967
     30 H10         6.3340   -4.6820    0.9090 hc        1 MOL      0.018422
     31 H11         4.9960   -5.3830    0.1910 hc        1 MOL      0.018422
     32 H12         3.8740   -5.6910    2.1420 hc        1 MOL      0.017103
     33 H13         4.5310   -4.3000    2.8810 hc        1 MOL      0.017103
     34 H14         6.8030   -5.3690    3.2970 hc        1 MOL      0.040815
     35 H15         6.2190   -6.7930    2.5070 hc        1 MOL      0.040815
     36 H16         4.2540   -6.6130    4.2690 hx        1 MOL      0.078210
     37 H17         5.3740   -5.6140    5.1400 hx        1 MOL      0.078210
     38 H18         7.0040   -7.4380    5.3130 hn        1 MOL      0.322582
     39 H19         5.5710   -8.0430    5.7850 hn        1 MOL      0.322582
     40 H20         6.1280   -8.3800    4.2860 hn        1 MOL      0.322582
     41 N4          3.6710   -2.9790   -1.7830 n         1 MOL     -0.268478
     42 C13         3.7740   -2.9130   -3.2390 c3        1 MOL     -0.124180
     43 C14         4.1000   -1.4950   -3.6760 c         1 MOL      0.528226
     44 O6          3.8810   -0.4720   -3.0070 o         1 MOL     -0.432996
     45 C15         2.4240   -3.2910   -3.8200 c3        1 MOL     -0.022747
     46 C16         1.3250   -2.4570   -3.1710 c         1 MOL      0.624457
     47 O7          1.0940   -1.3320   -3.6800 o         1 MOL     -0.674808
     48 O8          0.7210   -3.0550   -2.2260 o         1 MOL     -0.674808
     49 H21         2.7620   -3.1770   -1.3920 hn        1 MOL      0.173552
     50 H22         4.5700   -3.5030   -3.6890 h1        1 MOL      0.072333
     51 H23         2.2130   -4.3390   -3.6000 hc        1 MOL      0.023441
     52 H24         2.3830   -3.2410   -4.9100 hc        1 MOL      0.023441
     53 N5          4.7480   -1.2990   -4.8460 n         1 MOL     -0.450762
     54 C17         5.3960   -0.0240   -5.2120 c3        1 MOL     -0.128582
     55 C18         6.5660    0.3250   -4.3270 c         1 MOL      0.744506
     56 O9          7.4700   -0.4490   -4.2710 o         1 MOL     -0.575839
     57 H25         4.9560   -2.0880   -5.4460 hn        1 MOL      0.319668
     58 H26         4.6900    0.7890   -5.0950 h1        1 MOL      0.083834
     59 H27         5.8670   -0.1120   -6.1870 h1        1 MOL      0.083834
     60 N6          6.6150    1.4200   -3.6370 n         1 MOL     -0.704928
     61 C19         5.5670    2.3890   -3.3780 c3        1 MOL      0.312280
     62 C20         5.9420    3.1180   -2.0300 c         1 MOL      0.444061
     63 O10         7.0750    3.6070   -1.8870 o         1 MOL     -0.534159
     64 C21         5.4490    3.4540   -4.5270 c3        1 MOL     -0.340018
     65 C22         4.4740    4.6010   -4.1410 c         1 MOL      0.636504
     66 N7          4.9770    5.7850   -3.8820 n         1 MOL     -0.798472
     67 O11         3.2940    4.4270   -3.8740 o         1 MOL     -0.562327
     68 H28         7.3560    1.3870   -2.9550 hn        1 MOL      0.391043
     69 H29         4.6150    1.8670   -3.3160 h1        1 MOL      0.030342
     70 H30         5.0160    2.9570   -5.3900 hc        1 MOL      0.096189
     71 H31         6.4390    3.8620   -4.7280 hc        1 MOL      0.096189
     72 H32         5.9630    5.9340   -4.0180 hn        1 MOL      0.378200
     73 H33         4.3440    6.4870   -3.5210 hn        1 MOL      0.378200
     74 N8          5.0540    3.2610   -1.0300 n         1 MOL     -0.348678
     75 C23         3.8500    2.4840   -0.8420 c3        1 MOL     -0.141579
     76 C24         3.0600    3.0200    0.3900 c         1 MOL      0.596213
     77 O12         3.6840    3.5560    1.2860 o         1 MOL     -0.535191
     78 H34         5.3670    3.8220   -0.2460 hn        1 MOL      0.271895
     79 H35         4.1870    1.4880   -0.5610 h1        1 MOL      0.087405
     80 H36         3.2920    2.4870   -1.7730 h1        1 MOL      0.087405
     81 N9          1.7980    2.6190    0.4530 n         1 MOL     -0.464524
     82 C25         0.7980    2.9890    1.4500 c3        1 MOL     -0.033914
     83 C26        -0.4810    2.0970    1.2690 c         1 MOL      0.674998
     84 O13        -0.6250    1.3270    0.3110 o         1 MOL     -0.572997
     85 C27         0.4750    4.4590    1.3120 c3        1 MOL     -0.131281
     86 C28        -0.3840    5.1190    2.3340 ca        1 MOL      0.075586
     87 C29        -1.6270    5.7880    1.9760 ca        1 MOL     -0.125377
     88 C30         0.0250    5.2110    3.6550 ca        1 MOL     -0.125377
     89 C31        -2.2610    6.6530    2.9210 ca        1 MOL     -0.280373
     90 C32        -0.6040    5.9590    4.5470 ca        1 MOL     -0.280373
     91 C33        -1.7680    6.7030    4.2480 ca        1 MOL      0.341033
     92 O14        -2.2760    7.5060    5.1720 oh        1 MOL     -0.468201
     93 H37         1.4410    2.0750   -0.3190 hn        1 MOL      0.319260
     94 H38         1.2440    2.7630    2.4100 h1        1 MOL      0.103610
     95 H39         0.0510    4.7690    0.3550 hc        1 MOL      0.079641
     96 H40         1.3460    5.1020    1.2670 hc        1 MOL      0.079641
     97 H41        -1.9960    5.6830    0.9630 ha        1 MOL      0.124002
     98 H42         0.9200    4.6940    3.9490 ha        1 MOL      0.124002
     99 H43        -3.0900    7.2950    2.6500 ha        1 MOL      0.145426
    100 H44        -0.2220    6.1400    5.5430 ha        1 MOL      0.145426
    101 H45        -1.8370    7.3760    6.0160 ho        1 MOL      0.354425
    102 N10        -1.4040    2.1660    2.2100 n         1 MOL     -0.651481
    103 C34        -2.7360    1.4050    2.2450 c3        1 MOL      0.301476
    104 C35        -3.9410    2.1220    1.4560 c         1 MOL      0.429645
    105 O15        -3.7730    3.3040    1.0990 o         1 MOL     -0.487292
    106 C36        -3.1380    1.1270    3.6840 c3        1 MOL      0.086957
    107 C37        -2.2920    0.0040    4.3550 c3        1 MOL      0.146104
    108 C38        -3.1080    2.5210    4.4430 c3        1 MOL     -0.334207
    109 C39        -2.2500   -1.2990    3.6050 c3        1 MOL     -0.200128
    110 H46        -1.2210    2.7510    3.0120 hn        1 MOL      0.312468
    111 H47        -2.5740    0.4530    1.7450 h1        1 MOL     -0.067229
    112 H48        -4.1730    0.7890    3.5960 hc        1 MOL     -0.003844
    113 H49        -2.8600   -0.1900    5.2610 hc        1 MOL     -0.030856
    114 H50        -1.3510    0.3700    4.7680 hc        1 MOL     -0.030856
    115 H51        -3.7790    2.4750    5.2970 hc        1 MOL      0.080224
    116 H52        -2.1020    2.8420    4.7190 hc        1 MOL      0.080224
    117 H53        -3.6150    3.2980    3.8740 hc        1 MOL      0.080224
    118 H54        -3.2220   -1.5360    3.1780 hc        1 MOL      0.049746
    119 H55        -1.4160   -1.4090    2.9100 hc        1 MOL      0.049746
    120 H56        -1.9480   -1.9970    4.3960 hc        1 MOL      0.049746
    121 N11        -5.0530    1.4090    1.1500 n         1 MOL     -0.329179
    122 C40        -6.2890    1.9700    0.5810 c3        1 MOL      0.000694
    123 C41        -6.4760    1.5560   -0.8100 c         1 MOL      0.390170
    124 O16        -5.9000    0.5090   -1.1740 o         1 MOL     -0.413861
    125 C42        -7.4950    1.4330    1.4010 c3        1 MOL      0.019965
    126 O17        -7.4680    0.0540    1.6200 oh        1 MOL     -0.490895
    127 H57        -4.9770    0.4110    1.2600 hn        1 MOL      0.299134
    128 H58        -6.3330    3.0580    0.6550 h1        1 MOL      0.092983
    129 H59        -8.4080    1.5970    0.8310 h1        1 MOL      0.049831
    130 H60        -7.5830    1.9480    2.3600 h1        1 MOL      0.049831
    131 H61        -8.3710   -0.2610    1.6150 ho        1 MOL      0.394919
    132 N12        -7.4460    2.1380   -1.5240 n         1 MOL     -0.401491
    133 C43        -7.9480    1.6660   -2.8120 c3        1 MOL      0.212060
    134 C44        -8.2840    0.1410   -2.8400 c         1 MOL      0.383855
    135 O18        -7.8010   -0.6780   -3.5990 o         1 MOL     -0.425082
    136 C45        -6.9310    2.1990   -3.8540 c3        1 MOL     -0.350763
    137 H62        -7.9230    2.9410   -1.1450 hn        1 MOL      0.282195
    138 H63        -8.8810    2.2000   -2.9540 h1        1 MOL      0.021780
    139 H64        -6.5410    3.2040   -3.7110 hc        1 MOL      0.109062
    140 H65        -6.1740    1.4200   -3.7650 hc        1 MOL      0.109062
    141 H66        -7.3710    2.0680   -4.8500 hc        1 MOL      0.109062
    142 N13        -9.2190   -0.1640   -1.9360 n         1 MOL     -0.417189
    143 C46        -9.8550   -1.5120   -1.7030 c3        1 MOL      0.208575
    144 C47        -8.8440   -2.6220   -1.2870 c         1 MOL      0.197425
    145 O19        -9.1640   -3.8340   -1.2220 o         1 MOL     -0.432156
    146 C48       -10.7660   -1.9280   -2.8660 c3        1 MOL     -0.272864
    147 H67        -9.6080    0.6320   -1.4730 hn        1 MOL      0.255642
    148 H68       -10.5210   -1.4020   -0.8530 h1        1 MOL      0.038617
    149 H69       -10.2270   -2.0120   -3.8110 hc        1 MOL      0.093239
    150 H70       -11.2530   -2.8990   -2.7800 hc        1 MOL      0.093239
    151 H71       -11.4860   -1.1040   -2.9680 hc        1 MOL      0.093239
    152 N14        -7.5510   -2.2710   -1.0580 n         1 MOL     -0.039658
    153 C49        -6.5250   -3.2970   -0.7410 c3        1 MOL     -0.109019
    154 C50        -6.8670   -3.9760    0.6020 c         1 MOL      0.297432
    155 O20        -6.9540   -5.2140    0.6240 o         1 MOL     -0.484952
    156 C51        -5.1230   -2.7590   -0.6570 c3        1 MOL      0.287302
    157 C52        -4.0180   -3.7360   -0.2490 c3        1 MOL     -0.195888
    158 C53        -2.6960   -2.9740   -0.5110 c         1 MOL      0.793062
    159 O21        -2.1530   -2.3230    0.4100 o         1 MOL     -0.783502
    160 O22        -2.2220   -2.8070   -1.6680 o         1 MOL     -0.783502
    161 H72        -7.3100   -1.2950   -1.1560 hn        1 MOL      0.063878
    162 H73        -6.4840   -4.0140   -1.5530 h1        1 MOL      0.150279
    163 H74        -5.1040   -1.8980    0.0150 hc        1 MOL     -0.046628
    164 H75        -4.8100   -2.2690   -1.5770 hc        1 MOL     -0.046628
    165 H76        -4.0780   -4.6380   -0.8530 hc        1 MOL      0.029182
    166 H77        -4.1100   -3.9650    0.8140 hc        1 MOL      0.029182
    167 N15        -7.1720   -3.2830    1.7220 n         1 MOL     -0.045199
    168 C54        -7.7360   -3.8090    2.9400 c3        1 MOL     -0.193442
    169 H78        -8.5830   -3.1940    3.2430 h1        1 MOL      0.084594
    170 H79        -8.0720   -4.8320    2.7720 h1        1 MOL      0.084594
    171 H80        -6.9800   -3.7990    3.7250 h1        1 MOL      0.084594
    172 H81        -7.0350   -2.2760    1.6850 hn        1 MOL      0.063758
    173 Ca1        -0.5120   -1.0150   -1.1340 Ca        1 MOL      1.760407
    174 O23        -0.4490    1.1620   -2.8840 oh        1 MOL     -0.878552
    175 H82         0.1710    1.6330   -3.4470 ho        1 MOL      0.424422
    176 H83        -1.3010    1.2750   -3.3280 ho        1 MOL      0.424422
    177 O24         0.9820   -1.7480    0.9030 oh        1 MOL     -0.878552
    178 H84         1.1050   -2.2440    1.7220 ho        1 MOL      0.424422
    179 H85         1.5880   -1.0180    0.9740 ho        1 MOL      0.424422
    180 O25         1.9580    0.1830   -1.0900 oh        1 MOL     -0.878552
    181 H86         2.6820    0.0990   -0.4740 ho        1 MOL      0.424422
    182 H87         2.3520    0.0360   -1.9480 ho        1 MOL      0.424422
    183 O26        -3.0160    0.3000   -1.4120 oh        1 MOL     -0.878552
    184 H88        -2.9320    1.2010   -1.7220 ho        1 MOL      0.424422
    185 H89        -3.9240    0.2290   -1.1120 ho        1 MOL      0.424422
@<TRIPOS>BOND
     1    1    2 1   
     2    1    4 1   
     3    1    5 1   
     4    1    6 1   
     5    2    3 2   
     6    2    7 1   
     7    7    8 1   
     8    7   15 1   
     9    8    9 1   
    10    8   11 1   
    11    8   16 1   
    12    9   10 2   
    13    9   19 1   
    14   11   12 1   
    15   11   17 1   
    16   11   18 1   
    17   12   13 1   
    18   12   14 1   
    19   19   20 1   
    20   19   28 1   
    21   20   21 1   
    22   20   23 1   
    23   20   29 1   
    24   21   22 2   
    25   21   41 1   
    26   23   24 1   
    27   23   30 1   
    28   23   31 1   
    29   24   25 1   
    30   24   32 1   
    31   24   33 1   
    32   25   26 1   
    33   25   34 1   
    34   25   35 1   
    35   26   27 1   
    36   26   36 1   
    37   26   37 1   
    38   27   38 1   
    39   27   39 1   
    40   27   40 1   
    41   41   42 1   
    42   41   49 1   
    43   42   43 1   
    44   42   45 1   
    45   42   50 1   
    46   43   44 2   
    47   43   53 1   
    48   45   46 1   
    49   45   51 1   
    50   45   52 1   
    51   46   47 1   
    52   46   48 1   
    53   53   54 1   
    54   53   57 1   
    55   54   55 1   
    56   54   58 1   
    57   54   59 1   
    58   55   56 2   
    59   55   60 1   
    60   60   61 1   
    61   60   68 1   
    62   61   62 1   
    63   61   64 1   
    64   61   69 1   
    65   62   63 2   
    66   62   74 1   
    67   64   65 1   
    68   64   70 1   
    69   64   71 1   
    70   65   66 1   
    71   65   67 2   
    72   66   72 1   
    73   66   73 1   
    74   74   75 1   
    75   74   78 1   
    76   75   76 1   
    77   75   79 1   
    78   75   80 1   
    79   76   77 2   
    80   76   81 1   
    81   81   82 1   
    82   81   93 1   
    83   82   83 1   
    84   82   85 1   
    85   82   94 1   
    86   83   84 2   
    87   83  102 1   
    88   85   86 1   
    89   85   95 1   
    90   85   96 1   
    91   86   87 ar  
    92   86   88 ar  
    93   87   89 ar  
    94   87   97 1   
    95   88   90 ar  
    96   88   98 1   
    97   89   91 ar  
    98   89   99 1   
    99   90   91 ar  
   100   90  100 1   
   101   91   92 1   
   102   92  101 1   
   103  102  103 1   
   104  102  110 1   
   105  103  104 1   
   106  103  106 1   
   107  103  111 1   
   108  104  105 2   
   109  104  121 1   
   110  106  107 1   
   111  106  108 1   
   112  106  112 1   
   113  107  109 1   
   114  107  113 1   
   115  107  114 1   
   116  108  115 1   
   117  108  116 1   
   118  108  117 1   
   119  109  118 1   
   120  109  119 1   
   121  109  120 1   
   122  121  122 1   
   123  121  127 1   
   124  122  123 1   
   125  122  125 1   
   126  122  128 1   
   127  123  124 2   
   128  123  132 1   
   129  125  126 1   
   130  125  129 1   
   131  125  130 1   
   132  126  131 1   
   133  132  133 1   
   134  132  137 1   
   135  133  134 1   
   136  133  136 1   
   137  133  138 1   
   138  134  135 2   
   139  134  142 1   
   140  136  139 1   
   141  136  140 1   
   142  136  141 1   
   143  142  143 1   
   144  142  147 1   
   145  143  144 1   
   146  143  146 1   
   147  143  148 1   
   148  144  145 2   
   149  144  152 1   
   150  146  149 1   
   151  146  150 1   
   152  146  151 1   
   153  152  153 1   
   154  152  161 1   
   155  153  154 1   
   156  153  156 1   
   157  153  162 1   
   158  154  155 2   
   159  154  167 1   
   160  156  157 1   
   161  156  163 1   
   162  156  164 1   
   163  157  158 1   
   164  157  165 1   
   165  157  166 1   
   166  158  159 1   
   167  158  160 1   
   168  167  168 1   
   169  167  172 1   
   170  168  169 1   
   171  168  170 1   
   172  168  171 1   
   173  174  175 1   
   174  174  176 1   
   175  177  178 1   
   176  177  179 1   
   177  180  181 1   
   178  180  182 1   
   179  183  184 1   
   180  183  185 1   
@<TRIPOS>SUBSTRUCTURE
     1 MOL         1 TEMP              0 ****  ****    0 ROOT
