@<TRIPOS>MOLECULE
MOL
  191   184     1     0     0
SMALL
resp


@<TRIPOS>ATOM
      1 C1          4.2660    3.1580    3.0360 c3        1 MOL     -0.291807
      2 C2          5.1310    2.8280    1.7310 c         1 MOL      0.663921
      3 O1          4.8610    1.8920    1.0090 o         1 MOL     -0.629579
      4 H1          3.3000    2.6560    2.9680 hc        1 MOL      0.071905
      5 H2          4.7950    2.8070    3.9220 hc        1 MOL      0.071905
      6 H3          4.1110    4.2350    3.1070 hc        1 MOL      0.071905
      7 N1          6.2290    3.5070    1.6410 n         1 MOL     -0.441611
      8 C3          7.2660    3.1710    0.6620 c3        1 MOL      0.056419
      9 C4          7.7310    1.7310    0.6900 c         1 MOL      0.489832
     10 O2          8.2430    1.1690   -0.3370 o         1 MOL     -0.475383
     11 C5          6.8670    3.6670   -0.6970 c3        1 MOL     -0.195839
     12 C6          6.3280    5.0950   -0.7090 c         1 MOL      0.732163
     13 O3          6.5690    5.8480    0.2430 o         1 MOL     -0.686636
     14 O4          5.6110    5.4480   -1.6820 o         1 MOL     -0.686636
     15 H4          6.5190    4.1280    2.3800 hn        1 MOL      0.299958
     16 H5          8.1110    3.7930    0.9530 h1        1 MOL      0.064728
     17 H6          6.0550    2.9770   -0.9550 hc        1 MOL      0.062994
     18 H7          7.6670    3.6710   -1.4260 hc        1 MOL      0.062994
     19 N2          7.6040    1.0880    1.9020 n         1 MOL     -0.470844
     20 C7          7.7950   -0.3640    2.0180 c3        1 MOL     -0.002537
     21 C8          6.9350   -1.4400    1.3000 c         1 MOL      0.548024
     22 O5          7.2570   -2.6220    1.1650 o         1 MOL     -0.610897
     23 C9          7.6310   -0.6470    3.5010 c3        1 MOL     -0.083884
     24 C10         8.0880   -2.0520    3.9980 c3        1 MOL      0.069309
     25 C11         8.2740   -2.1480    5.4930 c3        1 MOL     -0.192411
     26 C12         8.7790   -3.5930    5.6940 c3        1 MOL      0.199143
     27 N3          8.9890   -3.8190    7.1350 n4        1 MOL     -0.391498
     28 H8          7.1840    1.5470    2.7010 hn        1 MOL      0.230903
     29 H9          8.8270   -0.5450    1.7150 h1        1 MOL      0.086727
     30 H10         6.5580   -0.5480    3.7070 hc        1 MOL      0.040412
     31 H11         8.2340    0.0590    4.0620 hc        1 MOL      0.040412
     32 H12         9.1160   -2.2180    3.6660 hc        1 MOL      0.028936
     33 H13         7.4650   -2.8630    3.6280 hc        1 MOL      0.028936
     34 H14         7.3410   -2.0930    6.0570 hc        1 MOL      0.058024
     35 H15         9.0050   -1.4200    5.8470 hc        1 MOL      0.058024
     36 H16         9.7110   -3.7760    5.1550 hx        1 MOL      0.053208
     37 H17         8.1520   -4.3040    5.1540 hx        1 MOL      0.053208
     38 H18         8.1330   -3.7010    7.6590 hn        1 MOL      0.292358
     39 H19         9.4490   -4.7040    7.2670 hn        1 MOL      0.292358
     40 H20         9.5760   -3.1100    7.5430 hn        1 MOL      0.292358
     41 N4          5.7750   -1.0160    0.9600 n         1 MOL     -0.318039
     42 C13         4.8540   -1.8280    0.1630 c3        1 MOL     -0.127982
     43 C14         5.2730   -1.9720   -1.2950 c         1 MOL      0.602215
     44 O6          5.9260   -1.0700   -1.8510 o         1 MOL     -0.486969
     45 C15         3.4650   -1.1650    0.2260 c3        1 MOL     -0.108427
     46 C16         2.4270   -2.0280   -0.4200 c         1 MOL      0.869854
     47 O7          1.8500   -2.9390    0.1910 o         1 MOL     -0.806955
     48 O8          1.9320   -1.5780   -1.4690 o         1 MOL     -0.806955
     49 H21         5.5830   -0.0260    0.9530 hn        1 MOL      0.317109
     50 H22         4.8240   -2.8070    0.6510 h1        1 MOL      0.092104
     51 H23         3.4990   -0.1150   -0.0650 hc        1 MOL      0.060106
     52 H24         3.1200   -1.0920    1.2570 hc        1 MOL      0.060106
     53 N5          4.9300   -3.0420   -2.0170 n         1 MOL     -0.345798
     54 C17         5.2740   -3.1990   -3.4430 c3        1 MOL     -0.078047
     55 C18         4.6210   -2.0770   -4.3110 c         1 MOL      0.431913
     56 O9          5.1390   -1.8280   -5.3860 o         1 MOL     -0.539373
     57 H25         4.6020   -3.8170   -1.4630 hn        1 MOL      0.231655
     58 H26         4.8700   -4.1770   -3.7190 h1        1 MOL      0.096380
     59 H27         6.3540   -3.2710   -3.5380 h1        1 MOL      0.096380
     60 N6          3.4610   -1.5260   -3.9620 n         1 MOL     -0.087086
     61 C19         2.8420   -0.4660   -4.6590 c3        1 MOL      0.064133
     62 C20         2.6460    0.8500   -3.8160 c         1 MOL      0.455930
     63 O10         2.2060    1.8620   -4.3880 o         1 MOL     -0.554328
     64 C21         1.4280   -0.9160   -5.1330 c3        1 MOL     -0.584710
     65 C22         1.4780   -1.9520   -6.2090 c         1 MOL      0.816359
     66 N7          1.8720   -1.6530   -7.4300 n         1 MOL     -0.864310
     67 O11         1.2300   -3.1340   -5.9210 o         1 MOL     -0.635205
     68 H28         3.0090   -1.9820   -3.1810 hn        1 MOL      0.081036
     69 H29         3.4850   -0.1530   -5.4830 h1        1 MOL      0.095890
     70 H30         0.7920   -0.0890   -5.4230 hc        1 MOL      0.196301
     71 H31         1.0420   -1.4080   -4.2450 hc        1 MOL      0.196301
     72 H32         1.9660   -0.6600   -7.6050 hn        1 MOL      0.408568
     73 H33         2.3130   -2.3990   -7.9520 hn        1 MOL      0.408568
     74 N8          3.0270    0.9330   -2.5630 n         1 MOL     -0.293088
     75 C23         2.8180    2.0790   -1.6270 c3        1 MOL      0.221858
     76 C24         1.3610    2.3710   -1.2020 c         1 MOL      0.353291
     77 O12         0.4570    1.5140   -1.4270 o         1 MOL     -0.413108
     78 H34         3.3950    0.0720   -2.1680 hn        1 MOL      0.132274
     79 H35         3.2890    2.9510   -2.0910 h1        1 MOL      0.032736
     80 H36         3.4530    1.8340   -0.7800 h1        1 MOL      0.032736
     81 N9          1.1250    3.5640   -0.7330 n         1 MOL     -0.427956
     82 C25        -0.2400    4.1670   -0.4290 c3        1 MOL      0.170410
     83 C26        -1.1750    3.2110    0.3940 c         1 MOL      0.358038
     84 O13        -0.7040    2.5010    1.3500 o         1 MOL     -0.440821
     85 C27         0.0460    5.4350    0.3780 c3        1 MOL     -0.230747
     86 C28        -1.1630    6.3120    0.7190 ca        1 MOL      0.067392
     87 C29        -2.1160    6.5710   -0.2660 ca        1 MOL     -0.148028
     88 C30        -1.2900    6.9640    1.9990 ca        1 MOL     -0.148028
     89 C31        -3.2600    7.3330    0.0880 ca        1 MOL     -0.268594
     90 C32        -2.5050    7.6490    2.3880 ca        1 MOL     -0.268594
     91 C33        -3.4900    7.8550    1.4180 ca        1 MOL      0.345956
     92 O14        -4.5890    8.6200    1.6900 oh        1 MOL     -0.507771
     93 H37         1.8830    4.2320   -0.7070 hn        1 MOL      0.299664
     94 H38        -0.6840    4.3970   -1.4070 h1        1 MOL      0.072459
     95 H39         0.6200    6.0830   -0.2890 hc        1 MOL      0.118545
     96 H40         0.6390    5.1740    1.2550 hc        1 MOL      0.118545
     97 H41        -2.0130    6.2340   -1.2850 ha        1 MOL      0.137958
     98 H42        -0.4920    6.8720    2.7160 ha        1 MOL      0.137958
     99 H43        -3.9330    7.5680   -0.7220 ha        1 MOL      0.152817
    100 H44        -2.6490    8.0330    3.3850 ha        1 MOL      0.152817
    101 H45        -4.4340    9.1060    2.5020 ho        1 MOL      0.387227
    102 N10        -2.4860    3.1180    0.1130 n         1 MOL     -0.571647
    103 C34        -3.3880    2.1380    0.7130 c3        1 MOL     -0.060468
    104 C35        -4.1570    1.3160   -0.2420 c         1 MOL      0.640518
    105 O15        -4.1960    0.1100   -0.1530 o         1 MOL     -0.496688
    106 C36        -4.1800    2.7940    1.8780 c3        1 MOL      0.149137
    107 C37        -3.3460    3.5450    2.8800 c3        1 MOL      0.026484
    108 C38        -4.9630    1.6720    2.5320 c3        1 MOL     -0.435702
    109 C39        -3.9510    3.7740    4.2780 c3        1 MOL     -0.258274
    110 H46        -2.8640    3.8100   -0.5320 hn        1 MOL      0.274652
    111 H47        -2.7330    1.4290    1.2180 h1        1 MOL      0.120503
    112 H48        -4.8920    3.4810    1.4190 hc        1 MOL     -0.041581
    113 H49        -3.0260    4.4910    2.4400 hc        1 MOL      0.057461
    114 H50        -2.4480    2.9370    2.9980 hc        1 MOL      0.057461
    115 H51        -4.2990    0.9480    3.0150 hc        1 MOL      0.108701
    116 H52        -5.6680    1.9710    3.3090 hc        1 MOL      0.108701
    117 H53        -5.5220    1.1390    1.7710 hc        1 MOL      0.108701
    118 H54        -4.2210    2.8930    4.8740 hc        1 MOL      0.065368
    119 H55        -3.3450    4.4520    4.8680 hc        1 MOL      0.065368
    120 H56        -4.9380    4.2280    4.1760 hc        1 MOL      0.065368
    121 N11        -4.7790    2.0070   -1.2370 n         1 MOL     -0.306983
    122 C40        -5.5100    1.2670   -2.3040 c3        1 MOL     -0.334491
    123 C41        -6.8410    0.6840   -1.8690 c         1 MOL      0.607264
    124 O16        -7.2930   -0.3380   -2.4860 o         1 MOL     -0.517913
    125 C42        -5.7220    2.0900   -3.5600 c3        1 MOL      0.058671
    126 O17        -6.3660    3.3230   -3.2910 oh        1 MOL     -0.625661
    127 H57        -4.6130    3.0060   -1.3050 hn        1 MOL      0.329440
    128 H58        -4.9120    0.3950   -2.6050 h1        1 MOL      0.182262
    129 H59        -6.3350    1.5710   -4.2980 h1        1 MOL      0.096060
    130 H60        -4.7630    2.3880   -3.9850 h1        1 MOL      0.096060
    131 H61        -7.0090    3.5320   -3.9810 ho        1 MOL      0.432914
    132 N12        -7.4650    1.1870   -0.7840 n         1 MOL     -0.389322
    133 C43        -8.7320    0.7240   -0.1980 c3        1 MOL      0.261792
    134 C44        -8.7250   -0.7430    0.1080 c         1 MOL      0.469142
    135 O18        -9.7330   -1.3690    0.1420 o         1 MOL     -0.500820
    136 C45        -9.9290    1.2320   -0.9900 c3        1 MOL     -0.411040
    137 H62        -6.9940    1.9290   -0.3010 hn        1 MOL      0.232571
    138 H63        -8.8520    1.2410    0.7540 h1        1 MOL      0.044033
    139 H64       -10.8930    0.9630   -0.5600 hc        1 MOL      0.116691
    140 H65        -9.8740    2.3210   -0.9660 hc        1 MOL      0.116691
    141 H66        -9.8580    0.8200   -1.9880 hc        1 MOL      0.116691
    142 N13        -7.5090   -1.2940    0.4490 n         1 MOL     -0.528124
    143 C46        -7.2670   -2.6960    0.7500 c3        1 MOL      0.310756
    144 C47        -6.0870   -2.9030    1.7170 c         1 MOL      0.209683
    145 O19        -5.3310   -1.9710    2.0130 o         1 MOL     -0.374197
    146 C48        -6.8850   -3.4270   -0.5550 c3        1 MOL     -0.355512
    147 H67        -6.6970   -0.6960    0.4010 hn        1 MOL      0.242931
    148 H68        -8.1880   -3.1400    1.1280 h1        1 MOL      0.017016
    149 H69        -7.6530   -3.4100   -1.3270 hc        1 MOL      0.109773
    150 H70        -6.0430   -2.9100   -1.0070 hc        1 MOL      0.109773
    151 H71        -6.6710   -4.4760   -0.3540 hc        1 MOL      0.109773
    152 N14        -5.9230   -4.1320    2.1300 n         1 MOL     -0.214430
    153 C49        -4.9180   -4.6110    3.0870 c3        1 MOL     -0.265480
    154 C50        -4.8590   -3.9080    4.4620 c         1 MOL      0.453462
    155 O20        -3.7920   -3.8030    5.1070 o         1 MOL     -0.483645
    156 C51        -3.4580   -4.7390    2.4690 c3        1 MOL      0.408697
    157 C52        -3.4620   -5.4980    1.1820 c3        1 MOL     -0.217060
    158 C53        -2.0140   -5.6760    0.7370 c         1 MOL      0.921176
    159 O21        -1.3050   -4.7100    0.7380 o         1 MOL     -0.765173
    160 O22        -1.6760   -6.8160    0.4180 o         1 MOL     -0.765173
    161 H72        -6.7250   -4.7240    1.9700 hn        1 MOL      0.254018
    162 H73        -5.1410   -5.6750    3.2310 h1        1 MOL      0.107721
    163 H74        -2.7250   -5.0940    3.2050 hc        1 MOL     -0.079182
    164 H75        -3.1530   -3.7200    2.2350 hc        1 MOL     -0.079182
    165 H76        -3.9400   -4.9010    0.4000 hc        1 MOL     -0.019233
    166 H77        -3.9950   -6.4410    1.2630 hc        1 MOL     -0.019233
    167 N15        -5.9640   -3.4210    5.0040 n         1 MOL     -0.311929
    168 C54        -5.9170   -2.6030    6.2140 c3        1 MOL     -0.089239
    169 H78        -6.7460   -2.8740    6.8680 h1        1 MOL      0.078898
    170 H79        -4.9750   -2.7760    6.7330 h1        1 MOL      0.078898
    171 H80        -5.9960   -1.5500    5.9450 h1        1 MOL      0.078898
    172 H81        -6.8010   -3.5670    4.4710 hn        1 MOL      0.236060
    173 Ca1        -0.6030   -2.9220   -1.0120 Ca        1 MOL      1.755071
    174 O23         0.7160   -3.6150   -3.2590 oh        1 MOL     -0.832447
    175 H82         1.0620   -4.4660   -2.9880 ho        1 MOL      0.398048
    176 H83         0.8990   -3.5700   -4.1930 ho        1 MOL      0.398048
    177 O24        -0.4140   -0.5690    0.3480 oh        1 MOL     -0.832447
    178 H84        -0.1090    0.1240   -0.2300 ho        1 MOL      0.398048
    179 H85        -1.0520   -0.1630    0.9160 ho        1 MOL      0.398048
    180 O25        -3.1140   -2.3750   -0.3170 oh        1 MOL     -0.832447
    181 H86        -3.5100   -1.5620    0.0050 ho        1 MOL      0.398048
    182 H87        -3.4790   -3.0530    0.2560 ho        1 MOL      0.398048
    183 O26        -1.1330   -1.1220   -2.8210 oh        1 MOL     -0.832447
    184 H88        -1.5840   -1.2820   -3.6510 ho        1 MOL      0.398048
    185 H89        -1.1960   -0.1750   -2.6920 ho        1 MOL      0.398048
    186 O27        -1.9970   -4.3400   -2.5660 oh        1 MOL     -0.832447
    187 H90        -2.4850   -5.1530   -2.4930 ho        1 MOL      0.398048
    188 H91        -1.6200   -4.3600   -3.4500 ho        1 MOL      0.398048
    189 O28         0.4960   -5.5360   -1.3240 oh        1 MOL     -0.832447
    190 H92         1.3420   -5.9310   -1.5450 ho        1 MOL      0.398048
    191 H93         0.0330   -6.2180   -0.8430 ho        1 MOL      0.398048
@<TRIPOS>BOND
     1    1    2 1   
     2    1    4 1   
     3    1    5 1   
     4    1    6 1   
     5    2    3 2   
     6    2    7 1   
     7    7    8 1   
     8    7   15 1   
     9    8    9 1   
    10    8   11 1   
    11    8   16 1   
    12    9   10 2   
    13    9   19 1   
    14   11   12 1   
    15   11   17 1   
    16   11   18 1   
    17   12   13 1   
    18   12   14 1   
    19   19   20 1   
    20   19   28 1   
    21   20   21 1   
    22   20   23 1   
    23   20   29 1   
    24   21   22 2   
    25   21   41 1   
    26   23   24 1   
    27   23   30 1   
    28   23   31 1   
    29   24   25 1   
    30   24   32 1   
    31   24   33 1   
    32   25   26 1   
    33   25   34 1   
    34   25   35 1   
    35   26   27 1   
    36   26   36 1   
    37   26   37 1   
    38   27   38 1   
    39   27   39 1   
    40   27   40 1   
    41   41   42 1   
    42   41   49 1   
    43   42   43 1   
    44   42   45 1   
    45   42   50 1   
    46   43   44 2   
    47   43   53 1   
    48   45   46 1   
    49   45   51 1   
    50   45   52 1   
    51   46   47 1   
    52   46   48 1   
    53   53   54 1   
    54   53   57 1   
    55   54   55 1   
    56   54   58 1   
    57   54   59 1   
    58   55   56 2   
    59   55   60 1   
    60   60   61 1   
    61   60   68 1   
    62   61   62 1   
    63   61   64 1   
    64   61   69 1   
    65   62   63 2   
    66   62   74 1   
    67   64   65 1   
    68   64   70 1   
    69   64   71 1   
    70   65   66 1   
    71   65   67 2   
    72   66   72 1   
    73   66   73 1   
    74   74   75 1   
    75   74   78 1   
    76   75   76 1   
    77   75   79 1   
    78   75   80 1   
    79   76   77 2   
    80   76   81 1   
    81   81   82 1   
    82   81   93 1   
    83   82   83 1   
    84   82   85 1   
    85   82   94 1   
    86   83   84 2   
    87   83  102 1   
    88   85   86 1   
    89   85   95 1   
    90   85   96 1   
    91   86   87 ar  
    92   86   88 ar  
    93   87   89 ar  
    94   87   97 1   
    95   88   90 ar  
    96   88   98 1   
    97   89   91 ar  
    98   89   99 1   
    99   90   91 ar  
   100   90  100 1   
   101   91   92 1   
   102   92  101 1   
   103  102  103 1   
   104  102  110 1   
   105  103  104 1   
   106  103  106 1   
   107  103  111 1   
   108  104  105 2   
   109  104  121 1   
   110  106  107 1   
   111  106  108 1   
   112  106  112 1   
   113  107  109 1   
   114  107  113 1   
   115  107  114 1   
   116  108  115 1   
   117  108  116 1   
   118  108  117 1   
   119  109  118 1   
   120  109  119 1   
   121  109  120 1   
   122  121  122 1   
   123  121  127 1   
   124  122  123 1   
   125  122  125 1   
   126  122  128 1   
   127  123  124 2   
   128  123  132 1   
   129  125  126 1   
   130  125  129 1   
   131  125  130 1   
   132  126  131 1   
   133  132  133 1   
   134  132  137 1   
   135  133  134 1   
   136  133  136 1   
   137  133  138 1   
   138  134  135 2   
   139  134  142 1   
   140  136  139 1   
   141  136  140 1   
   142  136  141 1   
   143  142  143 1   
   144  142  147 1   
   145  143  144 1   
   146  143  146 1   
   147  143  148 1   
   148  144  145 2   
   149  144  152 1   
   150  146  149 1   
   151  146  150 1   
   152  146  151 1   
   153  152  153 1   
   154  152  161 1   
   155  153  154 1   
   156  153  156 1   
   157  153  162 1   
   158  154  155 2   
   159  154  167 1   
   160  156  157 1   
   161  156  163 1   
   162  156  164 1   
   163  157  158 1   
   164  157  165 1   
   165  157  166 1   
   166  158  159 1   
   167  158  160 1   
   168  167  168 1   
   169  167  172 1   
   170  168  169 1   
   171  168  170 1   
   172  168  171 1   
   173  174  175 1   
   174  174  176 1   
   175  177  178 1   
   176  177  179 1   
   177  180  181 1   
   178  180  182 1   
   179  183  184 1   
   180  183  185 1   
   181  186  187 1   
   182  186  188 1   
   183  189  190 1   
   184  189  191 1   
@<TRIPOS>SUBSTRUCTURE
     1 MOL         1 TEMP              0 ****  ****    0 ROOT
