@<TRIPOS>MOLECULE
MOL
  175   173     1     0     0
SMALL
resp


@<TRIPOS>ATOM
      1 C1         -5.8210    7.4350    2.4550 c3        1 MOL     -0.398298
      2 C2         -6.6860    6.8160    1.3030 c         1 MOL      0.672825
      3 O1         -6.6110    7.2420    0.1600 o         1 MOL     -0.608208
      4 H1         -5.0810    6.7060    2.7860 hc        1 MOL      0.101168
      5 H2         -5.3120    8.3280    2.0890 hc        1 MOL      0.101168
      6 H3         -6.4670    7.7020    3.2910 hc        1 MOL      0.101168
      7 N1         -7.5070    5.8050    1.5150 n         1 MOL     -0.515055
      8 C3         -8.4330    5.1830    0.5220 c3        1 MOL      0.236410
      9 C4         -7.6260    4.0480   -0.2370 c         1 MOL      0.521082
     10 O2         -8.0280    2.9060   -0.1310 o         1 MOL     -0.482674
     11 C5         -9.6590    4.6290    1.2910 c3        1 MOL     -0.282710
     12 C6        -10.8170    4.1900    0.3720 c         1 MOL      0.735622
     13 O3        -11.7410    3.5190    0.8640 o         1 MOL     -0.735353
     14 O4        -10.7430    4.4580   -0.8670 o         1 MOL     -0.735353
     15 H4         -7.5010    5.3490    2.4230 hn        1 MOL      0.258927
     16 H5         -8.7220    6.0130   -0.1200 h1        1 MOL      0.026105
     17 H6        -10.0940    5.4260    1.8980 hc        1 MOL      0.037016
     18 H7         -9.3210    3.8170    1.9380 hc        1 MOL      0.037016
     19 N2         -6.6360    4.4970   -1.0200 n         1 MOL     -0.682893
     20 C7         -5.8390    3.6120   -1.8000 c3        1 MOL      0.335588
     21 C8         -4.7350    2.9460   -0.8970 c         1 MOL      0.503313
     22 O5         -3.9080    3.5370   -0.2360 o         1 MOL     -0.555471
     23 C9         -5.1300    4.3850   -2.9300 c3        1 MOL     -0.257186
     24 H8         -6.5610    5.5030   -1.0210 hn        1 MOL      0.367700
     25 H9         -6.4750    2.8510   -2.2730 h1        1 MOL      0.067766
     26 H10        -4.3300    3.7700   -3.3440 hc        1 MOL      0.063673
     27 H11        -5.7520    4.6560   -3.7800 hc        1 MOL      0.063673
     28 H12        -4.7300    5.2810   -2.4650 hc        1 MOL      0.063673
     29 N3         -4.6780    1.6260   -0.8470 n         1 MOL     -0.282136
     30 C10        -5.4330    0.6340   -1.5610 c3        1 MOL     -0.341425
     31 C11        -5.6820   -0.5760   -0.6920 c         1 MOL      0.657203
     32 O6         -4.9650   -0.7980    0.2630 o         1 MOL     -0.525692
     33 C12        -4.6600    0.2250   -2.8410 c3        1 MOL      0.039189
     34 C13        -3.1970   -0.0850   -2.7710 c         1 MOL      0.657641
     35 O7         -2.7470   -0.8760   -1.8930 o         1 MOL     -0.677531
     36 O8         -2.4970    0.5610   -3.5230 o         1 MOL     -0.677531
     37 H13        -3.9820    1.3760   -0.1630 hn        1 MOL      0.233772
     38 H14        -6.4230    1.0470   -1.7760 h1        1 MOL      0.105135
     39 H15        -4.9120    0.9750   -3.5920 hc        1 MOL      0.002343
     40 H16        -5.1610   -0.6330   -3.3020 hc        1 MOL      0.002343
     41 N4         -6.6430   -1.4080   -1.1290 n         1 MOL     -0.453367
     42 C14        -6.9880   -2.6580   -0.4630 c3        1 MOL      0.166842
     43 C15        -6.9150   -3.9320   -1.4330 c         1 MOL      0.464513
     44 O9         -7.9360   -4.4080   -1.9170 o         1 MOL     -0.545273
     45 H17        -7.2070   -1.1510   -1.9360 hn        1 MOL      0.316540
     46 H18        -8.0220   -2.5830   -0.1370 h1        1 MOL      0.001367
     47 H19        -6.2530   -2.7940    0.3340 h1        1 MOL      0.001367
     48 N5         -5.7340   -4.4480   -1.7280 n         1 MOL     -0.399419
     49 C16        -4.4320   -4.1170   -1.2390 c3        1 MOL      0.057250
     50 C17        -4.1740   -4.7820    0.1040 c         1 MOL      0.555315
     51 O10        -4.1380   -6.0250    0.1730 o         1 MOL     -0.567696
     52 C18        -3.2900   -4.5330   -2.3320 c3        1 MOL     -0.189489
     53 C19        -1.8350   -4.2730   -1.9010 c         1 MOL      0.582914
     54 N6         -0.9230   -4.5310   -2.7580 n         1 MOL     -0.669375
     55 O11        -1.4940   -3.6750   -0.8930 o         1 MOL     -0.592791
     56 H20        -5.7220   -5.1160   -2.4860 hn        1 MOL      0.288522
     57 H21        -4.4010   -3.0680   -0.9500 h1        1 MOL     -0.013801
     58 H22        -3.4290   -3.8800   -3.1960 hc        1 MOL      0.077435
     59 H23        -3.3710   -5.5700   -2.6830 hc        1 MOL      0.077435
     60 H24        -1.1050   -5.0800   -3.5840 hn        1 MOL      0.346817
     61 H25        -0.0050   -4.4580   -2.3580 hn        1 MOL      0.346817
     62 N7         -3.9380   -4.0450    1.1920 n         1 MOL     -0.263808
     63 C20        -3.6680   -4.6110    2.5650 c3        1 MOL     -0.434951
     64 C21        -2.2630   -5.1060    2.8180 c         1 MOL      0.566886
     65 O12        -2.0100   -5.8730    3.7200 o         1 MOL     -0.587059
     66 H26        -3.6800   -3.0650    1.0990 hn        1 MOL      0.350762
     67 H27        -4.2170   -5.5390    2.7200 h1        1 MOL      0.173125
     68 H28        -3.9190   -3.8960    3.3510 h1        1 MOL      0.173125
     69 N8         -1.3170   -4.8200    1.9250 n         1 MOL     -0.018114
     70 C22         0.0940   -5.1630    2.0730 c3        1 MOL     -0.365550
     71 C23         0.9190   -3.9130    1.8570 c         1 MOL      0.352060
     72 O13         0.4350   -2.9390    1.4120 o         1 MOL     -0.458646
     73 C24         0.5740   -6.3440    1.1900 c3        1 MOL      0.449232
     74 C25         0.0250   -7.6680    1.7130 c3        1 MOL     -0.522738
     75 O14         0.1220   -6.0760   -0.1960 oh        1 MOL     -0.610090
     76 H29        -1.6520   -4.2680    1.1470 hn        1 MOL      0.164954
     77 H30         0.2240   -5.3880    3.1270 h1        1 MOL      0.127720
     78 H31         1.6650   -6.4640    1.1330 h1        1 MOL     -0.000081
     79 H32         0.5970   -5.3740   -0.6280 ho        1 MOL      0.383105
     80 H33        -1.0450   -7.5850    1.5030 hc        1 MOL      0.145213
     81 H34         0.4880   -8.4870    1.1820 hc        1 MOL      0.145213
     82 H35         0.1520   -7.7550    2.7990 hc        1 MOL      0.145213
     83 N9          2.2410   -3.9480    2.2290 n         1 MOL     -0.063906
     84 C26         3.1640   -2.8030    2.1190 c3        1 MOL     -0.049061
     85 C27         4.1140   -3.1380    0.9510 c         1 MOL      0.324896
     86 O15         4.9290   -4.0460    1.0320 o         1 MOL     -0.533789
     87 C28         3.9140   -2.5510    3.4690 c3        1 MOL      0.260795
     88 C29         4.5730   -1.1570    3.4380 c3        1 MOL      0.167289
     89 C30         2.9290   -2.6220    4.6640 c3        1 MOL     -0.280600
     90 C31         5.4330   -0.8930    4.6880 c3        1 MOL     -0.245467
     91 H36         2.5800   -4.8300    2.5840 hn        1 MOL      0.181144
     92 H37         2.5360   -1.9360    1.8850 h1        1 MOL     -0.014328
     93 H38         4.6430   -3.3390    3.6910 hc        1 MOL     -0.048715
     94 H39         3.8130   -0.3980    3.2600 hc        1 MOL     -0.032787
     95 H40         5.2060   -1.0960    2.5540 hc        1 MOL     -0.032787
     96 H41         2.3510   -1.6900    4.6460 hc        1 MOL      0.054713
     97 H42         2.3630   -3.5440    4.7050 hc        1 MOL      0.054713
     98 H43         3.4320   -2.5840    5.6310 hc        1 MOL      0.054713
     99 H44         5.8910    0.0710    4.4660 hc        1 MOL      0.045909
    100 H45         4.9180   -0.9830    5.6490 hc        1 MOL      0.045909
    101 H46         6.3090   -1.5390    4.7300 hc        1 MOL      0.045909
    102 N10         3.8900   -2.3690   -0.0890 n         1 MOL     -0.519209
    103 C32         4.5860   -2.6220   -1.3330 c3        1 MOL      0.537731
    104 C33         5.6960   -1.6260   -1.6850 c         1 MOL      0.387931
    105 O16         6.0300   -1.7380   -2.8670 o         1 MOL     -0.547170
    106 C34         3.5610   -2.9220   -2.4590 c3        1 MOL     -0.308710
    107 C35         2.1810   -3.4950   -1.9890 c         1 MOL      0.777683
    108 O17         1.9710   -4.7450   -1.9880 o         1 MOL     -0.709082
    109 O18         1.2680   -2.7360   -1.6370 o         1 MOL     -0.709082
    110 H47         3.0280   -1.8560   -0.2120 hn        1 MOL      0.334309
    111 H48         5.1570   -3.5530   -1.2960 h1        1 MOL     -0.001673
    112 H49         3.9930   -3.6660   -3.1250 hc        1 MOL      0.054018
    113 H50         3.3940   -2.0190   -3.0510 hc        1 MOL      0.054018
    114 N11         6.1160   -0.7110   -0.8100 n         1 MOL     -0.516857
    115 C36         6.7120    0.5070   -1.2560 c3        1 MOL      0.332139
    116 C37         6.3840    1.7410   -0.4160 c         1 MOL      0.396367
    117 O19         6.3240    1.6010    0.7860 o         1 MOL     -0.518647
    118 C38         8.1810    0.2910   -1.2860 c3        1 MOL     -0.349033
    119 C39         9.1530    1.3150   -1.8070 ca        1 MOL      0.124865
    120 C40         9.6140    2.2480   -0.8650 ca        1 MOL     -0.150158
    121 C41         9.5390    1.2860   -3.1360 ca        1 MOL     -0.150158
    122 C42        10.6040    3.1350   -1.2740 ca        1 MOL     -0.113390
    123 C43        10.4470    2.2000   -3.5760 ca        1 MOL     -0.113390
    124 C44        10.9990    3.0690   -2.6290 ca        1 MOL     -0.131410
    125 H51         5.7880   -0.7780    0.1420 hn        1 MOL      0.300089
    126 H52         6.3610    0.6240   -2.2850 h1        1 MOL      0.040498
    127 H53         8.4530   -0.5470   -1.9180 hc        1 MOL      0.120800
    128 H54         8.5120    0.1650   -0.2530 hc        1 MOL      0.120800
    129 H55         9.2710    2.3000    0.1580 ha        1 MOL      0.130548
    130 H56         9.1370    0.5090   -3.7690 ha        1 MOL      0.130548
    131 H57        11.1030    3.7870   -0.5650 ha        1 MOL      0.112815
    132 H58        10.9350    2.0850   -4.5320 ha        1 MOL      0.112815
    133 H59        11.7850    3.6480   -3.0790 ha        1 MOL      0.093402
    134 N12         6.2450    2.9560   -0.9680 n         1 MOL     -0.215131
    135 C45         6.4980    4.2520   -0.2110 c3        1 MOL     -0.009856
    136 C46         5.3250    4.6860    0.6670 c         1 MOL      0.551838
    137 O20         5.2180    5.8150    1.1460 o         1 MOL     -0.578177
    138 C47         6.9480    5.2720   -1.2390 c3        1 MOL     -0.135034
    139 C48         7.0930    4.5300   -2.5410 c3        1 MOL      0.234489
    140 C49         6.2450    3.2800   -2.4070 c3        1 MOL     -0.109646
    141 H60         7.4050    4.1070    0.3710 h1        1 MOL      0.086153
    142 H61         6.2300    6.0850   -1.3100 hc        1 MOL      0.052782
    143 H62         7.9110    5.7360   -1.0210 hc        1 MOL      0.052782
    144 H63         6.8730    5.1440   -3.4200 hc        1 MOL     -0.044807
    145 H64         8.1290    4.1970   -2.6450 hc        1 MOL     -0.044807
    146 H65         5.2470    3.4570   -2.8110 h1        1 MOL      0.070074
    147 H66         6.6100    2.5150   -3.0950 h1        1 MOL      0.070074
    148 N13         4.3150    3.8210    0.8540 n         1 MOL     -0.404513
    149 C50         3.0860    4.1480    1.5070 c3        1 MOL      0.032524
    150 C51         3.1750    4.2010    3.0480 c         1 MOL      0.314765
    151 O21         2.1650    4.0410    3.7600 o         1 MOL     -0.478379
    152 C52         1.9900    3.2170    1.0390 c3        1 MOL     -0.084010
    153 C53         2.1760    1.7520    1.4960 c3        1 MOL      0.137867
    154 C54         1.3560    0.7690    0.6950 c         1 MOL      0.708036
    155 O22         1.9360   -0.0300   -0.0520 o         1 MOL     -0.802292
    156 O23         0.1050    0.7670    0.8090 o         1 MOL     -0.802292
    157 H67         4.5380    2.9030    0.5090 hn        1 MOL      0.240152
    158 H68         2.8150    5.1300    1.1160 h1        1 MOL      0.126279
    159 H69         2.0250    3.2660   -0.0490 hc        1 MOL      0.041394
    160 H70         1.0600    3.6670    1.3860 hc        1 MOL      0.041394
    161 H71         1.7430    1.7230    2.5040 hc        1 MOL     -0.005313
    162 H72         3.2410    1.5350    1.4910 hc        1 MOL     -0.005313
    163 N14         4.3620    4.4060    3.6210 n         1 MOL     -0.208358
    164 C55         4.6770    4.5450    5.1310 c3        1 MOL     -0.067899
    165 H73         5.5390    3.9260    5.3800 h1        1 MOL      0.066852
    166 H74         4.9010    5.5870    5.3610 h1        1 MOL      0.066852
    167 H75         3.8160    4.2200    5.7140 h1        1 MOL      0.066852
    168 H76         5.1030    4.5260    2.9420 hn        1 MOL      0.194153
    169 Ca1        -0.5580   -1.3090   -0.5090 Ca        1 MOL      1.717811
    170 O24        -2.6260   -1.6840    1.4560 oh        1 MOL     -0.956397
    171 H77        -2.2730   -1.1580    2.1850 ho        1 MOL      0.444011
    172 H78        -3.4040   -1.2020    1.1740 ho        1 MOL      0.444011
    173 O25        -0.0320    0.2460   -2.6770 oh        1 MOL     -0.956397
    174 H79        -0.9160    0.4760   -2.9580 ho        1 MOL      0.444011
    175 H80         0.5170    0.9580   -3.0090 ho        1 MOL      0.444011
@<TRIPOS>BOND
     1    1    2 1   
     2    1    4 1   
     3    1    5 1   
     4    1    6 1   
     5    2    3 2   
     6    2    7 1   
     7    7    8 1   
     8    7   15 1   
     9    8    9 1   
    10    8   11 1   
    11    8   16 1   
    12    9   10 2   
    13    9   19 1   
    14   11   12 1   
    15   11   17 1   
    16   11   18 1   
    17   12   13 1   
    18   12   14 1   
    19   19   20 1   
    20   19   24 1   
    21   20   21 1   
    22   20   23 1   
    23   20   25 1   
    24   21   22 2   
    25   21   29 1   
    26   23   26 1   
    27   23   27 1   
    28   23   28 1   
    29   29   30 1   
    30   29   37 1   
    31   30   31 1   
    32   30   33 1   
    33   30   38 1   
    34   31   32 2   
    35   31   41 1   
    36   33   34 1   
    37   33   39 1   
    38   33   40 1   
    39   34   35 1   
    40   34   36 1   
    41   41   42 1   
    42   41   45 1   
    43   42   43 1   
    44   42   46 1   
    45   42   47 1   
    46   43   44 2   
    47   43   48 1   
    48   48   49 1   
    49   48   56 1   
    50   49   50 1   
    51   49   52 1   
    52   49   57 1   
    53   50   51 2   
    54   50   62 1   
    55   52   53 1   
    56   52   58 1   
    57   52   59 1   
    58   53   54 1   
    59   53   55 2   
    60   54   60 1   
    61   54   61 1   
    62   62   63 1   
    63   62   66 1   
    64   63   64 1   
    65   63   67 1   
    66   63   68 1   
    67   64   65 2   
    68   64   69 1   
    69   69   70 1   
    70   69   76 1   
    71   70   71 1   
    72   70   73 1   
    73   70   77 1   
    74   71   72 2   
    75   71   83 1   
    76   73   74 1   
    77   73   75 1   
    78   73   78 1   
    79   74   80 1   
    80   74   81 1   
    81   74   82 1   
    82   75   79 1   
    83   83   84 1   
    84   83   91 1   
    85   84   85 1   
    86   84   87 1   
    87   84   92 1   
    88   85   86 2   
    89   85  102 1   
    90   87   88 1   
    91   87   89 1   
    92   87   93 1   
    93   88   90 1   
    94   88   94 1   
    95   88   95 1   
    96   89   96 1   
    97   89   97 1   
    98   89   98 1   
    99   90   99 1   
   100   90  100 1   
   101   90  101 1   
   102  102  103 1   
   103  102  110 1   
   104  103  104 1   
   105  103  106 1   
   106  103  111 1   
   107  104  105 2   
   108  104  114 1   
   109  106  107 1   
   110  106  112 1   
   111  106  113 1   
   112  107  108 1   
   113  107  109 1   
   114  114  115 1   
   115  114  125 1   
   116  115  116 1   
   117  115  118 1   
   118  115  126 1   
   119  116  117 2   
   120  116  134 1   
   121  118  119 1   
   122  118  127 1   
   123  118  128 1   
   124  119  120 ar  
   125  119  121 ar  
   126  120  122 ar  
   127  120  129 1   
   128  121  123 ar  
   129  121  130 1   
   130  122  124 ar  
   131  122  131 1   
   132  123  124 ar  
   133  123  132 1   
   134  124  133 1   
   135  134  135 1   
   136  134  140 1   
   137  135  136 1   
   138  135  138 1   
   139  135  141 1   
   140  136  137 2   
   141  136  148 1   
   142  138  139 1   
   143  138  142 1   
   144  138  143 1   
   145  139  140 1   
   146  139  144 1   
   147  139  145 1   
   148  140  146 1   
   149  140  147 1   
   150  148  149 1   
   151  148  157 1   
   152  149  150 1   
   153  149  152 1   
   154  149  158 1   
   155  150  151 2   
   156  150  163 1   
   157  152  153 1   
   158  152  159 1   
   159  152  160 1   
   160  153  154 1   
   161  153  161 1   
   162  153  162 1   
   163  154  155 1   
   164  154  156 1   
   165  163  164 1   
   166  163  168 1   
   167  164  165 1   
   168  164  166 1   
   169  164  167 1   
   170  170  171 1   
   171  170  172 1   
   172  173  174 1   
   173  173  175 1   
@<TRIPOS>SUBSTRUCTURE
     1 MOL         1 TEMP              0 ****  ****    0 ROOT
