@<TRIPOS>MOLECULE
MOL
  192   187     1     0     0
SMALL
resp


@<TRIPOS>ATOM
      1 C1          9.7460    0.1560    1.9240 c3        1 MOL     -0.688187
      2 C2          8.5440   -0.2380    0.9480 c         1 MOL      0.812147
      3 O1          7.3530   -0.1660    1.2420 o         1 MOL     -0.676158
      4 H1          9.5270    1.1120    2.4020 hc        1 MOL      0.180277
      5 H2          9.8620   -0.6130    2.6880 hc        1 MOL      0.180277
      6 H3         10.6680    0.2410    1.3500 hc        1 MOL      0.180277
      7 N1          8.9470   -0.6800   -0.2340 n         1 MOL     -0.590911
      8 C3          8.1660   -1.0850   -1.4460 c3        1 MOL      0.146173
      9 C4          7.3760   -2.4120   -1.1950 c         1 MOL      0.397076
     10 O2          7.4210   -3.3750   -2.0060 o         1 MOL     -0.531751
     11 C5          9.0090   -0.9630   -2.7220 c3        1 MOL     -0.136429
     12 C6          9.9170    0.2620   -2.7680 c         1 MOL      0.721490
     13 O3         11.0980    0.1310   -2.4500 o         1 MOL     -0.657579
     14 O4          9.4400    1.3180   -3.3100 o         1 MOL     -0.657579
     15 H4          9.9480   -0.8000   -0.2870 hn        1 MOL      0.281343
     16 H5          7.3830   -0.3290   -1.4960 h1        1 MOL      0.061134
     17 H6          8.3890   -1.0080   -3.6220 hc        1 MOL      0.036713
     18 H7          9.6580   -1.8360   -2.7300 hc        1 MOL      0.036713
     19 N2          6.6260   -2.5620   -0.1000 n         1 MOL     -0.105452
     20 C7          5.9970   -3.8830    0.2810 c3        1 MOL     -0.014998
     21 C8          4.6240   -4.0060   -0.3430 c         1 MOL      0.630189
     22 O5          4.2860   -5.0860   -0.7940 o         1 MOL     -0.582372
     23 C9          6.0880   -4.0680    1.8520 c3        1 MOL     -0.084461
     24 C10         7.5730   -4.3820    2.2070 c3        1 MOL     -0.015117
     25 C11         7.8030   -4.4040    3.7630 c3        1 MOL     -0.020265
     26 C12         9.2220   -4.3010    4.2090 c3        1 MOL      0.157262
     27 N3          9.5140   -5.0080    5.4710 n4        1 MOL     -0.231927
     28 H8          6.5750   -1.7670    0.5250 hn        1 MOL      0.193138
     29 H9          6.6710   -4.6400   -0.1130 h1        1 MOL      0.058436
     30 H10         5.4230   -4.8350    2.2410 hc        1 MOL      0.036701
     31 H11         5.6040   -3.2750    2.4200 hc        1 MOL      0.036701
     32 H12         8.1940   -3.5680    1.8470 hc        1 MOL      0.028940
     33 H13         7.8520   -5.3860    1.8950 hc        1 MOL      0.028940
     34 H14         7.4740   -5.3760    4.1290 hc        1 MOL      0.025404
     35 H15         7.3190   -3.5380    4.2160 hc        1 MOL      0.025404
     36 H16         9.5010   -3.2500    4.3310 hx        1 MOL      0.017992
     37 H17         9.7750   -4.8200    3.4340 hx        1 MOL      0.017992
     38 H18         9.6090   -6.0080    5.3500 hn        1 MOL      0.241744
     39 H19        10.4570   -4.9020    5.8310 hn        1 MOL      0.241744
     40 H20         8.7990   -4.8590    6.1690 hn        1 MOL      0.241744
     41 N4          3.6500   -3.1400   -0.2210 n         1 MOL     -0.567239
     42 C13         3.6590   -1.8240    0.5020 c3        1 MOL      0.291953
     43 C14         3.8760   -0.5810   -0.4810 c         1 MOL      0.253400
     44 O6          4.1440   -0.8340   -1.6790 o         1 MOL     -0.483905
     45 C15         2.3940   -1.6470    1.3940 c3        1 MOL     -0.220843
     46 C16         1.1120   -1.7510    0.5550 c         1 MOL      0.514345
     47 O7          0.9310   -1.1170   -0.4970 o         1 MOL     -0.573136
     48 O8          0.1960   -2.4130    1.1230 o         1 MOL     -0.573136
     49 H21         2.8170   -3.3780   -0.7400 hn        1 MOL      0.372585
     50 H22         4.4590   -1.7280    1.2480 h1        1 MOL      0.001696
     51 H23         2.4210   -0.7010    1.9270 hc        1 MOL      0.068734
     52 H24         2.4500   -2.3560    2.2210 hc        1 MOL      0.068734
     53 N5          3.7690    0.6420    0.0730 n         1 MOL     -0.220627
     54 C17         4.0280    1.8700   -0.6460 c3        1 MOL      0.115451
     55 C18         2.7270    2.7070   -0.9270 c         1 MOL      0.398153
     56 O9          1.6430    2.3490   -0.5960 o         1 MOL     -0.617683
     57 H25         3.4980    0.7170    1.0380 hn        1 MOL      0.190511
     58 H26         4.5800    1.6680   -1.5680 h1        1 MOL      0.064238
     59 H27         4.7860    2.3920   -0.0680 h1        1 MOL      0.064238
     60 N6          2.8800    3.8600   -1.6130 n         1 MOL     -0.493560
     61 C19         1.8150    4.7870   -2.0120 c3        1 MOL      0.377369
     62 C20         2.2500    6.2760   -1.6160 c         1 MOL      0.377921
     63 O10         3.4390    6.5340   -1.5330 o         1 MOL     -0.522649
     64 C21         1.3940    4.6480   -3.5180 c3        1 MOL     -0.311380
     65 C22         0.9950    3.1890   -3.7430 c         1 MOL      0.655122
     66 O11         1.4840    2.5890   -4.6830 o         1 MOL     -0.631469
     67 O12         0.0420    2.7150   -3.0470 o         1 MOL     -0.631469
     68 H28         3.8490    4.0740   -1.8220 hn        1 MOL      0.285239
     69 H29         0.9260    4.5360   -1.4270 h1        1 MOL      0.032419
     70 H30         2.2680    4.9200   -4.1260 hc        1 MOL      0.080074
     71 H31         0.6320    5.3550   -3.8460 hc        1 MOL      0.080074
     72 N7          1.4370    7.3470   -1.4770 n         1 MOL     -0.346501
     73 C23        -0.0010    7.3970   -1.7510 c3        1 MOL     -0.175647
     74 C24        -0.7780    6.7260   -0.5920 c         1 MOL      0.630218
     75 O13        -0.5350    7.0710    0.5660 o         1 MOL     -0.536691
     76 H32         1.8840    8.2090   -1.1770 hn        1 MOL      0.299183
     77 H33        -0.1510    6.8690   -2.6940 h1        1 MOL      0.095076
     78 H34        -0.3410    8.4170   -1.8460 h1        1 MOL      0.095076
     79 N8         -1.7240    5.8360   -0.8960 n         1 MOL     -0.495075
     80 C25        -2.4760    5.0790    0.0790 c3        1 MOL     -0.328257
     81 C26        -1.6610    3.9000    0.6110 c         1 MOL      1.106631
     82 O14        -1.0900    3.1780   -0.1800 o         1 MOL     -0.891425
     83 C27        -3.6840    4.5670   -0.5950 c3        1 MOL      0.637507
     84 C28        -4.7210    5.5570   -1.1890 c3        1 MOL     -0.166931
     85 O15        -4.4640    3.6910    0.1300 oh        1 MOL     -0.699230
     86 H35        -2.1040    5.8050   -1.8330 hn        1 MOL      0.300678
     87 H36        -2.7060    5.7650    0.8980 h1        1 MOL      0.091858
     88 H37        -3.2810    4.0350   -1.4510 h1        1 MOL     -0.067455
     89 H38        -4.8890    4.1210    0.8800 ho        1 MOL      0.379505
     90 H39        -4.2210    6.2780   -1.8460 hc        1 MOL      0.036127
     91 H40        -5.5150    5.1230   -1.7920 hc        1 MOL      0.036127
     92 H41        -5.2630    6.0520   -0.3820 hc        1 MOL      0.036127
     93 N9         -1.5800    3.7890    1.9280 n         1 MOL     -0.928261
     94 C29        -0.7680    2.7930    2.6590 c3        1 MOL      0.782068
     95 C30        -1.1750    1.3440    2.3090 c         1 MOL      0.157193
     96 O16        -0.5820    0.7320    1.3440 o         1 MOL     -0.535922
     97 C31         0.7350    3.0690    2.6030 c3        1 MOL     -0.002770
     98 C32         1.0970    4.4780    2.9440 c3        1 MOL     -0.051118
     99 C33         1.4770    2.0630    3.4130 c3        1 MOL     -0.403153
    100 C34         0.8390    4.8450    4.4520 c3        1 MOL     -0.374468
    101 H42        -2.0850    4.4800    2.4570 hn        1 MOL      0.339505
    102 H43        -1.0120    2.9100    3.7150 h1        1 MOL     -0.089262
    103 H44         0.8910    2.9010    1.5370 hc        1 MOL      0.164996
    104 H45         0.7430    5.1640    2.1810 hc        1 MOL      0.054509
    105 H46         2.1700    4.5310    2.7800 hc        1 MOL      0.054509
    106 H47         1.3500    1.0580    3.0100 hc        1 MOL      0.106863
    107 H48         2.5340    2.3160    3.5150 hc        1 MOL      0.106863
    108 H49         1.1120    2.1980    4.4330 hc        1 MOL      0.106863
    109 H50        -0.1800    4.6680    4.7960 hc        1 MOL      0.097668
    110 H51         1.5380    4.3630    5.1330 hc        1 MOL      0.097668
    111 H52         1.1330    5.8910    4.5670 hc        1 MOL      0.097668
    112 N10        -2.1700    0.7260    3.0460 n         1 MOL     -0.436756
    113 C35        -2.5710   -0.7090    2.9750 c3        1 MOL      0.070004
    114 C36        -4.0650   -0.9280    3.0170 c         1 MOL      0.391804
    115 O17        -4.4620   -2.0750    3.0980 o         1 MOL     -0.551342
    116 C37        -1.8380   -1.6360    4.0300 c3        1 MOL      0.297727
    117 C38        -1.8930   -1.1040    5.4830 c3        1 MOL     -0.289086
    118 O18        -0.4700   -1.6780    3.6410 oh        1 MOL     -0.550158
    119 H53        -2.6900    1.3100    3.6850 hn        1 MOL      0.257517
    120 H54        -2.2340   -1.1040    2.0260 h1        1 MOL      0.140930
    121 H55        -2.2960   -2.6150    3.9060 h1        1 MOL      0.031257
    122 H56        -0.3510   -2.0120    2.7490 ho        1 MOL      0.302542
    123 H57        -2.8940   -0.9820    5.8760 hc        1 MOL      0.070876
    124 H58        -1.2920   -1.7300    6.1350 hc        1 MOL      0.070876
    125 H59        -1.4950   -0.1050    5.6540 hc        1 MOL      0.070876
    126 N11        -4.8810    0.0930    2.7900 n         1 MOL     -0.069303
    127 C39        -6.3520    0.0250    2.7150 c3        1 MOL     -0.202843
    128 C40        -6.7360   -0.3730    1.3090 c         1 MOL      0.656459
    129 O19        -7.1320    0.3520    0.3910 o         1 MOL     -0.517718
    130 C41        -7.1320    1.3390    3.1210 c3        1 MOL      0.264449
    131 C42        -6.9830    1.5120    4.6400 c3        1 MOL     -0.042708
    132 O20        -6.4540    2.4970    2.6020 oh        1 MOL     -0.636737
    133 H60        -4.5410    1.0490    2.8200 hn        1 MOL      0.213622
    134 H61        -6.7120   -0.7580    3.3820 h1        1 MOL      0.114660
    135 H62        -8.1820    1.3850    2.8140 h1        1 MOL      0.050931
    136 H63        -7.1000    3.2060    2.5410 ho        1 MOL      0.421251
    137 H64        -5.9500    1.3100    4.9170 hc        1 MOL     -0.002055
    138 H65        -7.3290    2.5230    4.8800 hc        1 MOL     -0.002055
    139 H66        -7.5990    0.7350    5.0930 hc        1 MOL     -0.002055
    140 N12        -6.6680   -1.6890    1.2770 n         1 MOL     -0.788859
    141 C43        -6.6190   -2.4710   -0.0130 c3        1 MOL      0.327348
    142 C44        -5.4380   -2.1050   -0.9550 c         1 MOL      0.483723
    143 O21        -5.0680   -0.9270   -1.1300 o         1 MOL     -0.535013
    144 C45        -8.0230   -2.4360   -0.7410 c3        1 MOL     -0.351047
    145 C46        -9.2190   -2.7790    0.1110 c3        1 MOL      0.100771
    146 C47       -10.4140   -3.0900   -0.7930 c3        1 MOL      0.000265
    147 C48       -11.6600   -3.5090    0.0030 c3        1 MOL      0.103391
    148 N13       -12.7640   -4.1270   -0.7570 n4        1 MOL     -0.233835
    149 H67        -6.2550   -2.2230    2.0310 hn        1 MOL      0.373506
    150 H68        -6.4110   -3.4900    0.3060 h1        1 MOL      0.020528
    151 H69        -7.9820   -3.1220   -1.5880 hc        1 MOL      0.127667
    152 H70        -8.2080   -1.4560   -1.1630 hc        1 MOL      0.127667
    153 H71        -9.4420   -1.9390    0.7750 hc        1 MOL      0.012177
    154 H72        -8.8630   -3.7050    0.5800 hc        1 MOL      0.012177
    155 H73       -10.0940   -3.9120   -1.4310 hc        1 MOL      0.018334
    156 H74       -10.5310   -2.1610   -1.3590 hc        1 MOL      0.018334
    157 H75       -11.9890   -2.6890    0.6360 hx        1 MOL      0.030041
    158 H76       -11.3250   -4.2920    0.6960 hx        1 MOL      0.030041
    159 H77       -12.4960   -5.0140   -1.1530 hn        1 MOL      0.221700
    160 H78       -13.5500   -4.2730   -0.1410 hn        1 MOL      0.221700
    161 H79       -13.1570   -3.5050   -1.4430 hn        1 MOL      0.221700
    162 N14        -4.7910   -3.0930   -1.4950 n         1 MOL     -0.516806
    163 C49        -3.5510   -2.9060   -2.2940 c3        1 MOL      0.316908
    164 C50        -2.3370   -2.5640   -1.4170 c         1 MOL      0.308840
    165 O22        -1.7690   -1.4560   -1.6260 o         1 MOL     -0.578379
    166 C51        -3.2920   -4.1010   -3.1450 c3        1 MOL      0.237393
    167 C52        -4.4640   -4.3940   -4.1240 c3        1 MOL     -0.219152
    168 C53        -4.0320   -5.4870   -5.1300 c         1 MOL      0.675172
    169 O23        -3.7380   -6.6120   -4.7460 o         1 MOL     -0.617446
    170 O24        -3.9090   -5.2270   -6.3590 o         1 MOL     -0.617446
    171 H80        -5.0980   -4.0460   -1.3860 hn        1 MOL      0.275216
    172 H81        -3.7330   -2.0950   -2.9890 h1        1 MOL      0.022049
    173 H82        -3.0820   -5.0480   -2.6460 hc        1 MOL     -0.027413
    174 H83        -2.4350   -3.8140   -3.7450 hc        1 MOL     -0.027413
    175 H84        -4.8510   -3.5280   -4.6470 hc        1 MOL     -0.015396
    176 H85        -5.3050   -4.7600   -3.5290 hc        1 MOL     -0.015396
    177 N15        -1.9040   -3.3600   -0.4580 n         1 MOL     -0.262893
    178 C54        -2.2710   -4.7510    0.0300 c3        1 MOL     -0.234038
    179 H86        -1.4190   -5.4180   -0.1000 h1        1 MOL      0.096486
    180 H87        -2.5400   -4.7060    1.0860 h1        1 MOL      0.096486
    181 H88        -3.1170   -5.1260   -0.5450 h1        1 MOL      0.096486
    182 H89        -1.3410   -2.8470    0.2010 hn        1 MOL      0.330754
    183 Ca1        -0.5100    0.8680   -1.3690 Ca        1 MOL      1.753009
    184 O25        -3.2280    0.9430   -0.3950 oh        1 MOL     -0.778553
    185 H90        -3.7970    1.6990   -0.2610 ho        1 MOL      0.384520
    186 H91        -3.8230    0.1990   -0.5010 ho        1 MOL      0.384520
    187 O26        -1.6220    0.1580   -3.7330 oh        1 MOL     -0.778553
    188 H92        -1.3870    0.2670   -4.6610 ho        1 MOL      0.384520
    189 H93        -2.5710    0.2660   -3.7160 ho        1 MOL      0.384520
    190 O27         1.3720    0.0550   -3.2900 oh        1 MOL     -0.778553
    191 H94         1.7150    0.8190   -3.7550 ho        1 MOL      0.384520
    192 H95         2.1230   -0.2850   -2.8050 ho        1 MOL      0.384520
@<TRIPOS>BOND
     1    1    2 1   
     2    1    4 1   
     3    1    5 1   
     4    1    6 1   
     5    2    3 2   
     6    2    7 1   
     7    7    8 1   
     8    7   15 1   
     9    8    9 1   
    10    8   11 1   
    11    8   16 1   
    12    9   10 2   
    13    9   19 1   
    14   11   12 1   
    15   11   17 1   
    16   11   18 1   
    17   12   13 1   
    18   12   14 1   
    19   19   20 1   
    20   19   28 1   
    21   20   21 1   
    22   20   23 1   
    23   20   29 1   
    24   21   22 2   
    25   21   41 1   
    26   23   24 1   
    27   23   30 1   
    28   23   31 1   
    29   24   25 1   
    30   24   32 1   
    31   24   33 1   
    32   25   26 1   
    33   25   34 1   
    34   25   35 1   
    35   26   27 1   
    36   26   36 1   
    37   26   37 1   
    38   27   38 1   
    39   27   39 1   
    40   27   40 1   
    41   41   42 1   
    42   41   49 1   
    43   42   43 1   
    44   42   45 1   
    45   42   50 1   
    46   43   44 2   
    47   43   53 1   
    48   45   46 1   
    49   45   51 1   
    50   45   52 1   
    51   46   47 1   
    52   46   48 1   
    53   53   54 1   
    54   53   57 1   
    55   54   55 1   
    56   54   58 1   
    57   54   59 1   
    58   55   56 2   
    59   55   60 1   
    60   60   61 1   
    61   60   68 1   
    62   61   62 1   
    63   61   64 1   
    64   61   69 1   
    65   62   63 2   
    66   62   72 1   
    67   64   65 1   
    68   64   70 1   
    69   64   71 1   
    70   65   66 1   
    71   65   67 1   
    72   72   73 1   
    73   72   76 1   
    74   73   74 1   
    75   73   77 1   
    76   73   78 1   
    77   74   75 2   
    78   74   79 1   
    79   79   80 1   
    80   79   86 1   
    81   80   81 1   
    82   80   83 1   
    83   80   87 1   
    84   81   82 2   
    85   81   93 1   
    86   83   84 1   
    87   83   85 1   
    88   83   88 1   
    89   84   90 1   
    90   84   91 1   
    91   84   92 1   
    92   85   89 1   
    93   93   94 1   
    94   93  101 1   
    95   94   95 1   
    96   94   97 1   
    97   94  102 1   
    98   95   96 2   
    99   95  112 1   
   100   97   98 1   
   101   97   99 1   
   102   97  103 1   
   103   98  100 1   
   104   98  104 1   
   105   98  105 1   
   106   99  106 1   
   107   99  107 1   
   108   99  108 1   
   109  100  109 1   
   110  100  110 1   
   111  100  111 1   
   112  112  113 1   
   113  112  119 1   
   114  113  114 1   
   115  113  116 1   
   116  113  120 1   
   117  114  115 2   
   118  114  126 1   
   119  116  117 1   
   120  116  118 1   
   121  116  121 1   
   122  117  123 1   
   123  117  124 1   
   124  117  125 1   
   125  118  122 1   
   126  126  127 1   
   127  126  133 1   
   128  127  128 1   
   129  127  130 1   
   130  127  134 1   
   131  128  129 2   
   132  128  140 1   
   133  130  131 1   
   134  130  132 1   
   135  130  135 1   
   136  131  137 1   
   137  131  138 1   
   138  131  139 1   
   139  132  136 1   
   140  140  141 1   
   141  140  149 1   
   142  141  142 1   
   143  141  144 1   
   144  141  150 1   
   145  142  143 2   
   146  142  162 1   
   147  144  145 1   
   148  144  151 1   
   149  144  152 1   
   150  145  146 1   
   151  145  153 1   
   152  145  154 1   
   153  146  147 1   
   154  146  155 1   
   155  146  156 1   
   156  147  148 1   
   157  147  157 1   
   158  147  158 1   
   159  148  159 1   
   160  148  160 1   
   161  148  161 1   
   162  162  163 1   
   163  162  171 1   
   164  163  164 1   
   165  163  166 1   
   166  163  172 1   
   167  164  165 2   
   168  164  177 1   
   169  166  167 1   
   170  166  173 1   
   171  166  174 1   
   172  167  168 1   
   173  167  175 1   
   174  167  176 1   
   175  168  169 1   
   176  168  170 1   
   177  177  178 1   
   178  177  182 1   
   179  178  179 1   
   180  178  180 1   
   181  178  181 1   
   182  184  185 1   
   183  184  186 1   
   184  187  188 1   
   185  187  189 1   
   186  190  191 1   
   187  190  192 1   
@<TRIPOS>SUBSTRUCTURE
     1 MOL         1 TEMP              0 ****  ****    0 ROOT
