@<TRIPOS>MOLECULE
MOL
  182   178     1     0     0
SMALL
resp


@<TRIPOS>ATOM
      1 C1         -2.8730   -4.2770    5.3990 c3        1 MOL     -0.354524
      2 C2         -2.3310   -3.9720    4.0020 c         1 MOL      0.777805
      3 O1         -3.0890   -3.8500    3.0210 o         1 MOL     -0.587462
      4 H1         -2.3140   -3.7030    6.1380 hc        1 MOL      0.096060
      5 H2         -3.9270   -4.0020    5.4480 hc        1 MOL      0.096060
      6 H3         -2.7640   -5.3410    5.6070 hc        1 MOL      0.096060
      7 N1         -1.0210   -3.8090    3.8300 n         1 MOL     -0.650264
      8 C3         -0.3500   -3.4560    2.5070 c3        1 MOL      0.101126
      9 C4         -0.2410   -4.6210    1.4920 c         1 MOL      0.506193
     10 O2         -0.3790   -5.8090    1.8920 o         1 MOL     -0.538721
     11 C5          1.0210   -2.7880    2.7460 c3        1 MOL      0.123768
     12 C6          1.6920   -2.0420    1.5390 c         1 MOL      0.452320
     13 O3          2.6860   -1.2910    1.7780 o         1 MOL     -0.667547
     14 O4          1.2370   -2.2830    0.3890 o         1 MOL     -0.667547
     15 H4         -0.3670   -4.0620    4.5530 hn        1 MOL      0.328926
     16 H5         -0.8820   -2.7070    1.9190 h1        1 MOL     -0.055388
     17 H6          1.7560   -3.5690    2.9670 hc        1 MOL     -0.010054
     18 H7          0.9980   -2.1400    3.6280 hc        1 MOL     -0.010054
     19 N2         -0.2910   -4.3280    0.2110 n         1 MOL     -0.460278
     20 C7         -0.2470   -5.3470   -0.8450 c3        1 MOL     -0.044570
     21 C8          1.1440   -5.5830   -1.4440 c         1 MOL      0.575425
     22 O5          1.4190   -6.6860   -1.8480 o         1 MOL     -0.558960
     23 C9         -1.2170   -5.0330   -1.9980 c3        1 MOL     -0.013886
     24 C10        -2.6680   -5.0810   -1.6370 c3        1 MOL      0.162774
     25 C11        -3.4270   -4.9550   -2.9380 c3        1 MOL     -0.211420
     26 C12        -4.8710   -5.2750   -2.6380 c3        1 MOL      0.205721
     27 N3         -5.7420   -4.8780   -3.7140 n4        1 MOL     -0.528917
     28 H8         -0.1510   -3.3360    0.0480 hn        1 MOL      0.394501
     29 H9         -0.5680   -6.2880   -0.4020 h1        1 MOL      0.107755
     30 H10        -1.0880   -5.7810   -2.7790 hc        1 MOL      0.008664
     31 H11        -0.9080   -4.0730   -2.4210 hc        1 MOL      0.008664
     32 H12        -2.9060   -4.2280   -0.9990 hc        1 MOL     -0.000432
     33 H13        -3.0600   -6.0370   -1.2920 hc        1 MOL     -0.000432
     34 H14        -3.0460   -5.6850   -3.6430 hc        1 MOL      0.057625
     35 H15        -3.2810   -3.9090   -3.2120 hc        1 MOL      0.057625
     36 H16        -5.2460   -4.9050   -1.6900 hx        1 MOL      0.066512
     37 H17        -4.8280   -6.3560   -2.4680 hx        1 MOL      0.066512
     38 H18        -6.7070   -5.1830   -3.6510 hn        1 MOL      0.355417
     39 H19        -5.7860   -3.8780   -3.8560 hn        1 MOL      0.355417
     40 H20        -5.4390   -5.4180   -4.5060 hn        1 MOL      0.355417
     41 N4          2.0290   -4.5540   -1.3920 n         1 MOL     -0.285168
     42 C13         3.4400   -4.6740   -1.7880 c3        1 MOL     -0.111910
     43 C14         4.5290   -4.5300   -0.7030 c         1 MOL      0.448954
     44 O6          5.6850   -4.8380   -0.8700 o         1 MOL     -0.540458
     45 C15         3.7420   -3.9460   -3.1000 c3        1 MOL     -0.535883
     46 C16         3.5090   -2.4370   -2.9160 c         1 MOL      0.784463
     47 O7          3.4010   -1.9250   -1.8030 o         1 MOL     -0.687896
     48 O8          3.4840   -1.7810   -3.9940 o         1 MOL     -0.687896
     49 H21         1.6590   -3.6680   -1.0830 hn        1 MOL      0.204371
     50 H22         3.5330   -5.6850   -2.1710 h1        1 MOL      0.161467
     51 H23         3.1710   -4.4510   -3.8720 hc        1 MOL      0.179818
     52 H24         4.7990   -4.1480   -3.3190 hc        1 MOL      0.179818
     53 N5          4.1050   -4.0300    0.4550 n         1 MOL     -0.159337
     54 C17         4.9270   -3.7410    1.6000 c3        1 MOL     -0.072409
     55 C18         5.9070   -2.6510    1.3630 c         1 MOL      0.582288
     56 O9          6.7610   -2.4300    2.2230 o         1 MOL     -0.581591
     57 H25         3.1130   -3.8690    0.4930 hn        1 MOL      0.127480
     58 H26         5.4950   -4.5680    2.0170 h1        1 MOL      0.090947
     59 H27         4.3600   -3.4840    2.5010 h1        1 MOL      0.090947
     60 N6          5.9460   -1.9000    0.2350 n         1 MOL     -0.402500
     61 C19         6.8940   -0.7990   -0.0170 c3        1 MOL      0.407595
     62 C20         6.1030    0.4790   -0.5640 c         1 MOL      0.317014
     63 O10         4.8440    0.4450   -0.5880 o         1 MOL     -0.440705
     64 C21         7.8300   -1.3620   -1.0850 c3        1 MOL     -0.653834
     65 C22         7.2360   -1.5050   -2.5050 c         1 MOL      0.762268
     66 N7          6.8690   -2.6640   -2.9310 n         1 MOL     -0.672895
     67 O11         7.1640   -0.5950   -3.2710 o         1 MOL     -0.571345
     68 H28         5.3000   -1.9800   -0.5310 hn        1 MOL      0.190634
     69 H29         7.3800   -0.4680    0.8980 h1        1 MOL      0.038748
     70 H30         8.2440   -2.3030   -0.7070 hc        1 MOL      0.164114
     71 H31         8.7660   -0.8110   -1.0840 hc        1 MOL      0.164114
     72 H32         7.0040   -3.4570   -2.3100 hn        1 MOL      0.326183
     73 H33         6.7580   -2.8070   -3.9190 hn        1 MOL      0.326183
     74 N8          6.7220    1.6280   -0.9970 n         1 MOL     -0.375556
     75 C23         6.0470    2.9100   -1.2260 c3        1 MOL     -0.011462
     76 C24         5.2480    3.3420   -0.0190 c         1 MOL      0.420105
     77 O12         5.5430    3.0170    1.1430 o         1 MOL     -0.455973
     78 H34         7.7230    1.5730   -1.1360 hn        1 MOL      0.280737
     79 H35         5.3530    2.8130   -2.0540 h1        1 MOL      0.081320
     80 H36         6.7670    3.6600   -1.5390 h1        1 MOL      0.081320
     81 N9          4.1000    4.0510   -0.2690 n         1 MOL     -0.422738
     82 C25         3.0400    4.3060    0.7040 c3        1 MOL      0.103549
     83 C26         2.4820    3.0750    1.3350 c         1 MOL      0.722057
     84 O13         2.7160    1.9250    0.8720 o         1 MOL     -0.586414
     85 C27         1.9410    5.1690    0.0650 c3        1 MOL      0.013902
     86 C28         2.3800    6.4710   -0.6000 ca        1 MOL     -0.076334
     87 C29         3.0790    7.4330    0.1820 ca        1 MOL     -0.096489
     88 C30         2.1810    6.7390   -1.9850 ca        1 MOL     -0.096489
     89 C31         3.6130    8.5830   -0.4840 ca        1 MOL     -0.284914
     90 C32         2.7430    7.8360   -2.6190 ca        1 MOL     -0.284914
     91 C33         3.4940    8.7370   -1.8530 ca        1 MOL      0.384181
     92 O14         3.9960    9.8400   -2.5010 oh        1 MOL     -0.512626
     93 H37         3.9590    4.2110   -1.2550 hn        1 MOL      0.233271
     94 H38         3.5210    4.9420    1.4510 h1        1 MOL      0.045896
     95 H39         1.1240    5.3880    0.7500 hc        1 MOL      0.032245
     96 H40         1.5110    4.5910   -0.7510 hc        1 MOL      0.032245
     97 H41         3.1150    7.3580    1.2600 ha        1 MOL      0.120910
     98 H42         1.7280    5.9480   -2.5630 ha        1 MOL      0.120910
     99 H43         4.0280    9.4590   -0.0130 ha        1 MOL      0.156713
    100 H44         2.6950    8.0550   -3.6740 ha        1 MOL      0.156713
    101 H45         3.6140    9.9820   -3.3710 ho        1 MOL      0.372751
    102 N10         1.6140    3.2350    2.3380 n         1 MOL     -0.720313
    103 C34         0.9820    2.2930    3.1790 c3        1 MOL      0.529297
    104 C35         0.0290    1.2510    2.5600 c         1 MOL      0.258522
    105 O15         0.3200    0.6730    1.4730 o         1 MOL     -0.504948
    106 C36         1.9810    1.7320    4.2680 c3        1 MOL      0.030110
    107 C37         1.2790    1.0190    5.4510 c3        1 MOL      0.026850
    108 C38         2.9850    2.7050    4.7730 c3        1 MOL     -0.266031
    109 C39         0.4240    1.9440    6.2900 c3        1 MOL     -0.242904
    110 H46         1.4700    4.1770    2.6480 hn        1 MOL      0.287495
    111 H47         0.3370    2.9860    3.7240 h1        1 MOL     -0.043578
    112 H48         2.5170    0.9230    3.7680 hc        1 MOL      0.036342
    113 H49         2.0820    0.6840    6.1100 hc        1 MOL      0.033275
    114 H50         0.7660    0.0880    5.2260 hc        1 MOL      0.033275
    115 H51         3.6570    3.0090    3.9720 hc        1 MOL      0.075123
    116 H52         2.5240    3.5340    5.2920 hc        1 MOL      0.075123
    117 H53         3.6260    2.2980    5.5440 hc        1 MOL      0.075123
    118 H54        -0.4440    2.3800    5.7930 hc        1 MOL      0.052610
    119 H55         0.1410    1.2380    7.0810 hc        1 MOL      0.052610
    120 H56         1.0320    2.7680    6.6870 hc        1 MOL      0.052610
    121 N11        -1.1090    0.9340    3.2200 n         1 MOL     -0.292966
    122 C40        -2.1360   -0.0230    2.8490 c3        1 MOL      0.055038
    123 C41        -3.1610    0.4090    1.7850 c         1 MOL      0.597127
    124 O16        -3.7130   -0.4340    1.1200 o         1 MOL     -0.511263
    125 C42        -2.8660   -0.4060    4.1110 c3        1 MOL      0.252272
    126 O17        -3.4660    0.6490    4.7670 oh        1 MOL     -0.639812
    127 H57        -1.3530    1.4700    4.0410 hn        1 MOL      0.265971
    128 H58        -1.6290   -0.9120    2.4630 h1        1 MOL      0.071099
    129 H59        -2.0700   -0.7420    4.7770 h1        1 MOL     -0.016896
    130 H60        -3.5360   -1.2340    3.8490 h1        1 MOL     -0.016896
    131 H61        -4.3810    0.3810    4.8700 ho        1 MOL      0.430568
    132 N12        -3.3690    1.7160    1.5890 n         1 MOL     -0.645098
    133 C43        -4.1480    2.2260    0.3550 c3        1 MOL      0.454830
    134 C44        -3.2970    2.4770   -0.8530 c         1 MOL      0.472228
    135 O18        -2.1050    2.8640   -0.6190 o         1 MOL     -0.596133
    136 C45        -5.1130    3.3270    0.7950 c3        1 MOL     -0.226977
    137 H62        -2.8210    2.4090    2.0760 hn        1 MOL      0.279169
    138 H63        -4.7550    1.3770    0.0380 h1        1 MOL     -0.057176
    139 H64        -4.6560    4.1290    1.3640 hc        1 MOL      0.060696
    140 H65        -5.6180    3.8240   -0.0420 hc        1 MOL      0.060696
    141 H66        -5.9760    2.9760    1.3510 hc        1 MOL      0.060696
    142 N13        -3.7250    2.2690   -2.0700 n         1 MOL     -0.528921
    143 C46        -5.0330    1.7090   -2.5520 c3        1 MOL      0.321196
    144 C47        -6.0880    2.7890   -2.7130 c         1 MOL      0.439486
    145 O19        -5.7920    3.8800   -3.2680 o         1 MOL     -0.539947
    146 C48        -4.6550    1.0760   -3.9250 c3        1 MOL     -0.615588
    147 H67        -3.0980    2.4610   -2.8460 hn        1 MOL      0.321076
    148 H68        -5.4100    0.9630   -1.8420 h1        1 MOL      0.044710
    149 H69        -4.3060    1.8490   -4.6020 hc        1 MOL      0.174221
    150 H70        -3.8540    0.3380   -3.8710 hc        1 MOL      0.174221
    151 H71        -5.5340    0.5290   -4.2890 hc        1 MOL      0.174221
    152 N14        -7.2920    2.6480   -2.1030 n         1 MOL     -0.324746
    153 C49        -7.7910    1.6330   -1.0360 c3        1 MOL     -0.506942
    154 C50        -8.5770    2.2970    0.0510 c         1 MOL      0.690539
    155 O20        -8.5810    1.7590    1.1610 o         1 MOL     -0.518207
    156 C51        -8.6870    0.5570   -1.7450 c3        1 MOL     -0.023231
    157 C52        -8.9730   -0.5260   -0.6370 c3        1 MOL     -0.089760
    158 C53        -9.2680   -1.8250   -1.3350 c         1 MOL      0.591504
    159 O21       -10.4930   -2.0720   -1.5390 o         1 MOL     -0.700200
    160 O22        -8.2730   -2.5860   -1.6270 o         1 MOL     -0.700200
    161 H72        -7.8820    3.4360   -2.2970 hn        1 MOL      0.246700
    162 H73        -6.9930    0.9950   -0.6500 h1        1 MOL      0.275704
    163 H74        -8.0360    0.1150   -2.5100 hc        1 MOL      0.057682
    164 H75        -9.5870    0.9450   -2.2240 hc        1 MOL      0.057682
    165 H76        -9.8370   -0.2140   -0.0520 hc        1 MOL      0.048254
    166 H77        -8.0980   -0.7120   -0.0130 hc        1 MOL      0.048254
    167 N15        -9.0820    3.5680   -0.1840 n         1 MOL     -0.380012
    168 C54        -9.7940    4.1670    0.9090 c3        1 MOL     -0.154289
    169 H78        -9.1040    4.7600    1.5080 h1        1 MOL      0.089770
    170 H79       -10.5830    4.8110    0.5200 h1        1 MOL      0.089770
    171 H80       -10.2340    3.3860    1.5280 h1        1 MOL      0.089770
    172 H81        -8.8190    4.1450   -0.9720 hn        1 MOL      0.312505
    173 Ca1         2.1780   -0.0500   -0.6300 Ca        1 MOL      1.724459
    174 O23         0.0010   -0.6930   -2.1330 oh        1 MOL     -0.830409
    175 H82        -0.1580   -0.1460   -2.8960 ho        1 MOL      0.401566
    176 H83        -0.8610   -0.9520   -1.8260 ho        1 MOL      0.401566
    177 O24         0.5090    2.1270   -1.3100 oh        1 MOL     -0.830409
    178 H84         0.2440    2.0560   -2.2260 ho        1 MOL      0.401566
    179 H85        -0.3110    2.3350   -0.8510 ho        1 MOL      0.401566
    180 O25         2.9240    1.2770   -2.8740 oh        1 MOL     -0.830409
    181 H86         3.3430    2.1070   -3.0730 ho        1 MOL      0.401566
    182 H87         3.2310    0.6740   -3.5610 ho        1 MOL      0.401566
@<TRIPOS>BOND
     1    1    2 1   
     2    1    4 1   
     3    1    5 1   
     4    1    6 1   
     5    2    3 2   
     6    2    7 1   
     7    7    8 1   
     8    7   15 1   
     9    8    9 1   
    10    8   11 1   
    11    8   16 1   
    12    9   10 2   
    13    9   19 1   
    14   11   12 1   
    15   11   17 1   
    16   11   18 1   
    17   12   13 1   
    18   12   14 1   
    19   19   20 1   
    20   19   28 1   
    21   20   21 1   
    22   20   23 1   
    23   20   29 1   
    24   21   22 2   
    25   21   41 1   
    26   23   24 1   
    27   23   30 1   
    28   23   31 1   
    29   24   25 1   
    30   24   32 1   
    31   24   33 1   
    32   25   26 1   
    33   25   34 1   
    34   25   35 1   
    35   26   27 1   
    36   26   36 1   
    37   26   37 1   
    38   27   38 1   
    39   27   39 1   
    40   27   40 1   
    41   41   42 1   
    42   41   49 1   
    43   42   43 1   
    44   42   45 1   
    45   42   50 1   
    46   43   44 2   
    47   43   53 1   
    48   45   46 1   
    49   45   51 1   
    50   45   52 1   
    51   46   47 1   
    52   46   48 1   
    53   53   54 1   
    54   53   57 1   
    55   54   55 1   
    56   54   58 1   
    57   54   59 1   
    58   55   56 2   
    59   55   60 1   
    60   60   61 1   
    61   60   68 1   
    62   61   62 1   
    63   61   64 1   
    64   61   69 1   
    65   62   63 2   
    66   62   74 1   
    67   64   65 1   
    68   64   70 1   
    69   64   71 1   
    70   65   66 1   
    71   65   67 2   
    72   66   72 1   
    73   66   73 1   
    74   74   75 1   
    75   74   78 1   
    76   75   76 1   
    77   75   79 1   
    78   75   80 1   
    79   76   77 2   
    80   76   81 1   
    81   81   82 1   
    82   81   93 1   
    83   82   83 1   
    84   82   85 1   
    85   82   94 1   
    86   83   84 2   
    87   83  102 1   
    88   85   86 1   
    89   85   95 1   
    90   85   96 1   
    91   86   87 ar  
    92   86   88 ar  
    93   87   89 ar  
    94   87   97 1   
    95   88   90 ar  
    96   88   98 1   
    97   89   91 ar  
    98   89   99 1   
    99   90   91 ar  
   100   90  100 1   
   101   91   92 1   
   102   92  101 1   
   103  102  103 1   
   104  102  110 1   
   105  103  104 1   
   106  103  106 1   
   107  103  111 1   
   108  104  105 2   
   109  104  121 1   
   110  106  107 1   
   111  106  108 1   
   112  106  112 1   
   113  107  109 1   
   114  107  113 1   
   115  107  114 1   
   116  108  115 1   
   117  108  116 1   
   118  108  117 1   
   119  109  118 1   
   120  109  119 1   
   121  109  120 1   
   122  121  122 1   
   123  121  127 1   
   124  122  123 1   
   125  122  125 1   
   126  122  128 1   
   127  123  124 2   
   128  123  132 1   
   129  125  126 1   
   130  125  129 1   
   131  125  130 1   
   132  126  131 1   
   133  132  133 1   
   134  132  137 1   
   135  133  134 1   
   136  133  136 1   
   137  133  138 1   
   138  134  135 2   
   139  134  142 1   
   140  136  139 1   
   141  136  140 1   
   142  136  141 1   
   143  142  143 1   
   144  142  147 1   
   145  143  144 1   
   146  143  146 1   
   147  143  148 1   
   148  144  145 2   
   149  144  152 1   
   150  146  149 1   
   151  146  150 1   
   152  146  151 1   
   153  152  153 1   
   154  152  161 1   
   155  153  154 1   
   156  153  156 1   
   157  153  162 1   
   158  154  155 2   
   159  154  167 1   
   160  156  157 1   
   161  156  163 1   
   162  156  164 1   
   163  157  158 1   
   164  157  165 1   
   165  157  166 1   
   166  158  159 1   
   167  158  160 1   
   168  167  168 1   
   169  167  172 1   
   170  168  169 1   
   171  168  170 1   
   172  168  171 1   
   173  174  175 1   
   174  174  176 1   
   175  177  178 1   
   176  177  179 1   
   177  180  181 1   
   178  180  182 1   
@<TRIPOS>SUBSTRUCTURE
     1 MOL         1 TEMP              0 ****  ****    0 ROOT
