@<TRIPOS>MOLECULE
MOL
  181   177     1     0     0
SMALL
resp


@<TRIPOS>ATOM
      1 C1          1.6480   -1.4330    4.8910 c3        1 MOL     -0.262944
      2 C2          2.9040   -0.9270    4.2440 c         1 MOL      0.719746
      3 O1          3.1320    0.2910    4.1490 o         1 MOL     -0.569509
      4 H1          1.4620   -0.8730    5.8080 hc        1 MOL      0.062471
      5 H2          0.8090   -1.3020    4.2090 hc        1 MOL      0.062471
      6 H3          1.7620   -2.4900    5.1290 hc        1 MOL      0.062471
      7 N1          3.8200   -1.8870    3.9560 n         1 MOL     -0.857211
      8 C3          5.1500   -1.4770    3.5470 c3        1 MOL      0.491258
      9 C4          5.6960   -2.3650    2.3970 c         1 MOL      0.379897
     10 O2          6.5620   -2.0050    1.6080 o         1 MOL     -0.442081
     11 C5          6.0230   -1.4880    4.7800 c3        1 MOL     -0.100577
     12 C6          7.4170   -0.9160    4.6460 c         1 MOL      0.663238
     13 O3          8.3780   -1.5990    5.1400 o         1 MOL     -0.712495
     14 O4          7.5730    0.1580    4.0360 o         1 MOL     -0.712495
     15 H4          3.6370   -2.8580    4.1530 hn        1 MOL      0.395893
     16 H5          5.2520   -0.4700    3.1550 h1        1 MOL     -0.010067
     17 H6          6.0610   -2.5420    5.0580 hc        1 MOL     -0.031787
     18 H7          5.5870   -0.8870    5.5730 hc        1 MOL     -0.031787
     19 N2          5.2060   -3.5500    2.2580 n         1 MOL     -0.276063
     20 C7          5.7880   -4.5080    1.3190 c3        1 MOL      0.061858
     21 C8          5.6980   -4.1790   -0.2100 c         1 MOL      0.587448
     22 O5          6.5310   -4.5830   -0.9580 o         1 MOL     -0.496744
     23 C9          7.1520   -4.8880    1.8820 c3        1 MOL     -0.455866
     24 H8          4.4330   -3.8610    2.8280 hn        1 MOL      0.192848
     25 H9          5.1870   -5.4020    1.4850 h1        1 MOL      0.073123
     26 H10         7.1680   -4.9890    2.9690 hc        1 MOL      0.121303
     27 H11         7.2410   -5.9140    1.5420 hc        1 MOL      0.121303
     28 H12         7.9850   -4.2940    1.5060 hc        1 MOL      0.121303
     29 N3          4.6480   -3.4410   -0.5350 n         1 MOL     -0.600704
     30 C10         4.5040   -2.7180   -1.8060 c3        1 MOL      0.110900
     31 C11         5.6500   -1.7930   -2.0610 c         1 MOL      0.539521
     32 O6          6.0700   -1.4970   -3.1860 o         1 MOL     -0.600477
     33 C12         4.1900   -3.6730   -3.0480 c3        1 MOL     -0.388497
     34 C13         3.2940   -4.8930   -2.7790 c         1 MOL      0.881612
     35 O7          3.5060   -6.0180   -3.3160 o         1 MOL     -0.750080
     36 O8          2.2670   -4.6900   -2.1160 o         1 MOL     -0.750080
     37 H13         3.9880   -3.1810    0.1910 hn        1 MOL      0.290642
     38 H14         3.5910   -2.1220   -1.7870 h1        1 MOL      0.080212
     39 H15         5.0710   -4.1160   -3.5060 hc        1 MOL      0.083375
     40 H16         3.7490   -3.0780   -3.8500 hc        1 MOL      0.083375
     41 N4          6.2910   -1.2280   -1.0240 n         1 MOL     -0.031160
     42 C14         7.4740   -0.3240   -1.2200 c3        1 MOL     -0.432451
     43 C15         7.1440    1.1130   -1.5230 c         1 MOL      0.725481
     44 O9          8.0680    1.8560   -1.8490 o         1 MOL     -0.619719
     45 H17         6.0090   -1.3940   -0.0660 hn        1 MOL      0.104864
     46 H18         8.0890   -0.6880   -2.0430 h1        1 MOL      0.167953
     47 H19         7.9850   -0.3030   -0.2580 h1        1 MOL      0.167953
     48 N5          5.8540    1.4330   -1.5950 n         1 MOL     -0.347934
     49 C16         5.3810    2.7160   -2.0480 c3        1 MOL      0.097933
     50 C17         4.8460    3.6770   -0.9080 c         1 MOL      0.481911
     51 O10         4.7530    3.2680    0.2190 o         1 MOL     -0.440825
     52 C18         4.1960    2.3790   -3.0290 c3        1 MOL     -0.153500
     53 C19         3.0880    1.7890   -2.1950 c         1 MOL      0.542563
     54 N6          1.9230    2.3420   -2.1550 n         1 MOL     -0.624122
     55 O11         3.2350    0.8070   -1.5150 o         1 MOL     -0.473214
     56 H20         5.1260    0.7510   -1.4080 hn        1 MOL      0.143699
     57 H21         6.1740    3.2420   -2.5990 h1        1 MOL      0.037923
     58 H22         4.4600    1.5800   -3.7240 hc        1 MOL      0.043514
     59 H23         3.9320    3.3050   -3.5380 hc        1 MOL      0.043514
     60 H24         1.7220    3.0540   -2.8480 hn        1 MOL      0.301919
     61 H25         1.1610    1.9970   -1.5850 hn        1 MOL      0.301919
     62 N7          4.6100    4.9250   -1.3010 n         1 MOL     -0.543569
     63 C20         3.7930    5.8510   -0.4590 c3        1 MOL      0.089117
     64 C21         2.4050    6.0830   -1.0770 c         1 MOL      0.491764
     65 O12         2.0220    5.5890   -2.1100 o         1 MOL     -0.494188
     66 H26         4.7610    5.0720   -2.2860 hn        1 MOL      0.312036
     67 H27         4.2760    6.8210   -0.4090 h1        1 MOL      0.055357
     68 H28         3.6350    5.4660    0.5490 h1        1 MOL      0.055357
     69 N8          1.6960    7.0300   -0.4440 n         1 MOL     -0.381048
     70 C22         0.4620    7.6500   -1.0500 c3        1 MOL     -0.162655
     71 C23        -0.7810    6.8390   -0.5890 c         1 MOL      0.562719
     72 O13        -1.8360    7.4280   -0.4010 o         1 MOL     -0.566108
     73 C24         0.3080    9.0730   -0.6830 c3        1 MOL      0.559023
     74 C25         0.4620    9.4430    0.7640 c3        1 MOL     -0.341689
     75 O14         1.3760    9.6910   -1.3790 oh        1 MOL     -0.679348
     76 H29         2.0890    7.3460    0.4260 hn        1 MOL      0.220385
     77 H30         0.3590    7.5550   -2.1300 h1        1 MOL      0.120892
     78 H31        -0.6190    9.4540   -1.0980 h1        1 MOL      0.016793
     79 H32         2.2040    9.3340   -1.0400 ho        1 MOL      0.370997
     80 H33         0.9240    8.6660    1.3850 hc        1 MOL      0.075641
     81 H34         0.9730   10.4110    0.7900 hc        1 MOL      0.075641
     82 H35        -0.5100    9.6650    1.1940 hc        1 MOL      0.075641
     83 N9         -0.6190    5.4880   -0.4250 n         1 MOL     -0.356271
     84 C26        -1.4070    4.5650    0.4470 c3        1 MOL      0.016062
     85 C27        -1.4090    3.1780   -0.2180 c         1 MOL      0.431080
     86 O15        -0.6730    2.8710   -1.1480 o         1 MOL     -0.438163
     87 C28        -0.9270    4.4790    1.9000 c3        1 MOL      0.188970
     88 C29         0.6560    4.4050    2.2440 c3        1 MOL     -0.215059
     89 C30        -1.5690    5.6250    2.7300 c3        1 MOL     -0.309375
     90 C31         1.4830    3.3540    1.6410 c3        1 MOL     -0.107314
     91 H36         0.1510    4.9950   -0.8670 hn        1 MOL      0.160980
     92 H37        -2.4520    4.8870    0.4210 h1        1 MOL      0.070249
     93 H38        -1.4580    3.6530    2.3730 hc        1 MOL      0.006930
     94 H39         0.7430    4.3890    3.3380 hc        1 MOL      0.071713
     95 H40         1.0470    5.3910    1.9800 hc        1 MOL      0.071713
     96 H41        -1.1150    6.5590    2.3930 hc        1 MOL      0.070180
     97 H42        -2.6510    5.6600    2.6620 hc        1 MOL      0.070180
     98 H43        -1.2050    5.4680    3.7470 hc        1 MOL      0.070180
     99 H44         1.1030    2.3680    1.9190 hc        1 MOL      0.080193
    100 H45         1.4880    3.3360    0.5470 hc        1 MOL      0.080193
    101 H46         2.5370    3.4200    1.9110 hc        1 MOL      0.080193
    102 N10        -2.2630    2.2760    0.3060 n         1 MOL     -0.490539
    103 C32        -2.4110    0.9410   -0.3300 c3        1 MOL      0.133052
    104 C33        -3.8540    0.3470   -0.1700 c         1 MOL      0.449412
    105 O16        -4.0470   -0.8770   -0.3060 o         1 MOL     -0.496301
    106 C34        -1.3190    0.0580    0.2610 c3        1 MOL     -0.238638
    107 C35        -0.8600   -1.1110   -0.6210 c         1 MOL      0.790531
    108 O17        -0.0940   -1.9810   -0.2100 o         1 MOL     -0.739490
    109 O18        -1.2400   -1.2570   -1.8010 o         1 MOL     -0.739490
    110 H47        -2.8740    2.5830    1.0510 hn        1 MOL      0.282221
    111 H48        -2.2850    0.9290   -1.4120 h1        1 MOL      0.064754
    112 H49        -1.6170   -0.3260    1.2420 hc        1 MOL      0.063295
    113 H50        -0.4050    0.6240    0.4240 hc        1 MOL      0.063295
    114 N11        -4.8680    1.1500   -0.0090 n         1 MOL     -0.341313
    115 C36        -6.2170    0.7110   -0.3160 c3        1 MOL      0.231551
    116 C37        -6.7670   -0.2800    0.6750 c         1 MOL      0.126367
    117 O19        -6.7150   -0.1140    1.8640 o         1 MOL     -0.397700
    118 C38        -7.1630    1.8930   -0.5220 c3        1 MOL     -0.344764
    119 C39        -8.6370    1.5760   -0.8180 ca        1 MOL      0.128737
    120 C40        -8.9980    1.4760   -2.1860 ca        1 MOL     -0.188250
    121 C41        -9.4970    1.3580    0.2490 ca        1 MOL     -0.188250
    122 C42       -10.3340    1.1270   -2.4380 ca        1 MOL     -0.121239
    123 C43       -10.7840    0.9720   -0.0040 ca        1 MOL     -0.121239
    124 C44       -11.1580    0.8660   -1.3250 ca        1 MOL     -0.081658
    125 H51        -4.6400    2.1280    0.0260 hn        1 MOL      0.218760
    126 H52        -6.0770    0.1000   -1.2110 h1        1 MOL      0.040692
    127 H53        -6.7530    2.5850   -1.2620 hc        1 MOL      0.120758
    128 H54        -7.2070    2.4260    0.4210 hc        1 MOL      0.120758
    129 H55        -8.2610    1.5580   -2.9790 ha        1 MOL      0.147624
    130 H56        -9.1930    1.5220    1.2760 ha        1 MOL      0.147624
    131 H57       -10.6500    1.0410   -3.4700 ha        1 MOL      0.117176
    132 H58       -11.4670    0.7520    0.7980 ha        1 MOL      0.117176
    133 H59       -12.1830    0.5780   -1.5490 ha        1 MOL      0.076729
    134 N12        -7.4550   -1.3560    0.1520 n         1 MOL      0.043611
    135 C45        -7.9370   -2.4850    0.9170 c3        1 MOL      0.059458
    136 C46        -6.8880   -3.0370    1.9290 c         1 MOL      0.153249
    137 O20        -7.1730   -3.5510    3.0350 o         1 MOL     -0.496602
    138 C47        -8.4110   -3.5190   -0.0960 c3        1 MOL     -0.062240
    139 C48        -8.4920   -2.8170   -1.4560 c3        1 MOL     -0.009661
    140 C49        -7.5310   -1.6330   -1.2840 c3        1 MOL      0.027182
    141 H60        -8.8920   -2.1540    1.3330 h1        1 MOL      0.071903
    142 H61        -7.7780   -4.3600   -0.3840 hc        1 MOL      0.037982
    143 H62        -9.3700   -3.8510    0.3070 hc        1 MOL      0.037982
    144 H63        -8.2600   -3.4800   -2.2900 hc        1 MOL      0.009545
    145 H64        -9.4890   -2.4520   -1.6930 hc        1 MOL      0.009545
    146 H65        -6.5760   -2.0030   -1.6620 h1        1 MOL      0.013356
    147 H66        -7.7960   -0.7370   -1.8600 h1        1 MOL      0.013356
    148 N13        -5.6000   -2.8850    1.6470 n         1 MOL      0.071548
    149 C50        -4.4170   -3.1330    2.5310 c3        1 MOL     -0.233005
    150 C51        -4.1810   -2.1510    3.6720 c         1 MOL      0.442646
    151 O21        -3.5240   -2.4610    4.6890 o         1 MOL     -0.534101
    152 C52        -3.2210   -3.4240    1.6850 c3        1 MOL      0.094931
    153 C53        -3.2980   -4.6860    0.7740 c3        1 MOL     -0.257352
    154 C54        -2.2310   -4.6010   -0.3050 c         1 MOL      0.805767
    155 O22        -0.9970   -4.6840   -0.0560 o         1 MOL     -0.785027
    156 O23        -2.5570   -4.5860   -1.5470 o         1 MOL     -0.785027
    157 H67        -5.3470   -2.5740    0.7180 hn        1 MOL      0.166507
    158 H68        -4.8290   -4.0180    3.0190 h1        1 MOL      0.125991
    159 H69        -2.4300   -3.5390    2.4260 hc        1 MOL      0.049418
    160 H70        -2.9770   -2.5420    1.0880 hc        1 MOL      0.049418
    161 H71        -4.2840   -4.7730    0.3220 hc        1 MOL      0.039700
    162 H72        -3.2290   -5.5460    1.4360 hc        1 MOL      0.039700
    163 N14        -4.7240   -0.8810    3.5530 n         1 MOL     -0.055790
    164 C55        -4.7060    0.1890    4.5520 c3        1 MOL     -0.225840
    165 H73        -4.6030   -0.2450    5.5460 h1        1 MOL      0.087773
    166 H74        -3.8640    0.8540    4.3570 h1        1 MOL      0.087773
    167 H75        -5.6370    0.7530    4.4970 h1        1 MOL      0.087773
    168 H76        -5.2470   -0.7050    2.7030 hn        1 MOL      0.077636
    169 Ca1        -0.0570   -3.5740   -2.3250 Ca        1 MOL      1.734426
    170 O24        -1.5210   -2.9780   -4.4530 oh        1 MOL     -0.827455
    171 H77        -2.4790   -3.0380   -4.4050 ho        1 MOL      0.404279
    172 H78        -1.3150   -3.2460   -5.3440 ho        1 MOL      0.404279
    173 O25         1.2330   -4.1760   -4.8360 oh        1 MOL     -0.827455
    174 H79         0.8470   -5.0440   -4.8700 ho        1 MOL      0.404279
    175 H80         1.7980   -4.1360   -5.6070 ho        1 MOL      0.404279
    176 O26         1.4510   -1.6040   -3.5230 oh        1 MOL     -0.827455
    177 H81         1.3600   -0.6440   -3.4190 ho        1 MOL      0.404279
    178 H82         1.9250   -1.7120   -4.3450 ho        1 MOL      0.404279
    179 O27        -0.4560   -6.1790   -3.1380 oh        1 MOL     -0.827455
    180 H83        -1.1230   -6.5790   -3.6850 ho        1 MOL      0.404279
    181 H84        -0.2450   -6.8580   -2.4910 ho        1 MOL      0.404279
@<TRIPOS>BOND
     1    1    2 1   
     2    1    4 1   
     3    1    5 1   
     4    1    6 1   
     5    2    3 2   
     6    2    7 1   
     7    7    8 1   
     8    7   15 1   
     9    8    9 1   
    10    8   11 1   
    11    8   16 1   
    12    9   10 2   
    13    9   19 1   
    14   11   12 1   
    15   11   17 1   
    16   11   18 1   
    17   12   13 1   
    18   12   14 1   
    19   19   20 1   
    20   19   24 1   
    21   20   21 1   
    22   20   23 1   
    23   20   25 1   
    24   21   22 2   
    25   21   29 1   
    26   23   26 1   
    27   23   27 1   
    28   23   28 1   
    29   29   30 1   
    30   29   37 1   
    31   30   31 1   
    32   30   33 1   
    33   30   38 1   
    34   31   32 2   
    35   31   41 1   
    36   33   34 1   
    37   33   39 1   
    38   33   40 1   
    39   34   35 1   
    40   34   36 1   
    41   41   42 1   
    42   41   45 1   
    43   42   43 1   
    44   42   46 1   
    45   42   47 1   
    46   43   44 2   
    47   43   48 1   
    48   48   49 1   
    49   48   56 1   
    50   49   50 1   
    51   49   52 1   
    52   49   57 1   
    53   50   51 2   
    54   50   62 1   
    55   52   53 1   
    56   52   58 1   
    57   52   59 1   
    58   53   54 1   
    59   53   55 2   
    60   54   60 1   
    61   54   61 1   
    62   62   63 1   
    63   62   66 1   
    64   63   64 1   
    65   63   67 1   
    66   63   68 1   
    67   64   65 2   
    68   64   69 1   
    69   69   70 1   
    70   69   76 1   
    71   70   71 1   
    72   70   73 1   
    73   70   77 1   
    74   71   72 2   
    75   71   83 1   
    76   73   74 1   
    77   73   75 1   
    78   73   78 1   
    79   74   80 1   
    80   74   81 1   
    81   74   82 1   
    82   75   79 1   
    83   83   84 1   
    84   83   91 1   
    85   84   85 1   
    86   84   87 1   
    87   84   92 1   
    88   85   86 2   
    89   85  102 1   
    90   87   88 1   
    91   87   89 1   
    92   87   93 1   
    93   88   90 1   
    94   88   94 1   
    95   88   95 1   
    96   89   96 1   
    97   89   97 1   
    98   89   98 1   
    99   90   99 1   
   100   90  100 1   
   101   90  101 1   
   102  102  103 1   
   103  102  110 1   
   104  103  104 1   
   105  103  106 1   
   106  103  111 1   
   107  104  105 2   
   108  104  114 1   
   109  106  107 1   
   110  106  112 1   
   111  106  113 1   
   112  107  108 1   
   113  107  109 1   
   114  114  115 1   
   115  114  125 1   
   116  115  116 1   
   117  115  118 1   
   118  115  126 1   
   119  116  117 2   
   120  116  134 1   
   121  118  119 1   
   122  118  127 1   
   123  118  128 1   
   124  119  120 ar  
   125  119  121 ar  
   126  120  122 ar  
   127  120  129 1   
   128  121  123 ar  
   129  121  130 1   
   130  122  124 ar  
   131  122  131 1   
   132  123  124 ar  
   133  123  132 1   
   134  124  133 1   
   135  134  135 1   
   136  134  140 1   
   137  135  136 1   
   138  135  138 1   
   139  135  141 1   
   140  136  137 2   
   141  136  148 1   
   142  138  139 1   
   143  138  142 1   
   144  138  143 1   
   145  139  140 1   
   146  139  144 1   
   147  139  145 1   
   148  140  146 1   
   149  140  147 1   
   150  148  149 1   
   151  148  157 1   
   152  149  150 1   
   153  149  152 1   
   154  149  158 1   
   155  150  151 2   
   156  150  163 1   
   157  152  153 1   
   158  152  159 1   
   159  152  160 1   
   160  153  154 1   
   161  153  161 1   
   162  153  162 1   
   163  154  155 1   
   164  154  156 1   
   165  163  164 1   
   166  163  168 1   
   167  164  165 1   
   168  164  166 1   
   169  164  167 1   
   170  170  171 1   
   171  170  172 1   
   172  173  174 1   
   173  173  175 1   
   174  176  177 1   
   175  176  178 1   
   176  179  180 1   
   177  179  181 1   
@<TRIPOS>SUBSTRUCTURE
     1 MOL         1 TEMP              0 ****  ****    0 ROOT
