@<TRIPOS>MOLECULE
MOL
  189   185     1     0     0
SMALL
resp


@<TRIPOS>ATOM
      1 C1         -3.9880   -3.7980   -3.7330 c3        1 MOL     -0.600291
      2 C2         -4.8700   -3.3470   -2.4990 c         1 MOL      0.816129
      3 O1         -4.3080   -3.1480   -1.4060 o         1 MOL     -0.584472
      4 H1         -4.5960   -3.7840   -4.6380 hc        1 MOL      0.146461
      5 H2         -3.1480   -3.1130   -3.8510 hc        1 MOL      0.146461
      6 H3         -3.6140   -4.8070   -3.5630 hc        1 MOL      0.146461
      7 N1         -6.1580   -3.1820   -2.7310 n         1 MOL     -0.672488
      8 C3         -7.1170   -2.3080   -1.9830 c3        1 MOL      0.391981
      9 C4         -6.4610   -0.9680   -1.7590 c         1 MOL      0.250269
     10 O2         -5.7870   -0.7140   -0.7470 o         1 MOL     -0.591554
     11 C5         -7.7290   -2.8490   -0.6820 c3        1 MOL     -0.111664
     12 C6         -6.8180   -3.7630    0.2170 c         1 MOL      0.691295
     13 O3         -5.9480   -3.1680    0.9630 o         1 MOL     -0.713291
     14 O4         -6.9010   -5.0140    0.1790 o         1 MOL     -0.713291
     15 H4         -6.4220   -3.3610   -3.6900 hn        1 MOL      0.304200
     16 H5         -7.9810   -2.2050   -2.6470 h1        1 MOL     -0.009333
     17 H6         -8.6280   -3.3950   -0.9890 hc        1 MOL     -0.001131
     18 H7         -8.0060   -1.9730   -0.0990 hc        1 MOL     -0.001131
     19 N2         -6.3140   -0.2740   -2.8800 n         1 MOL     -0.333062
     20 C7         -5.7430    1.1460   -2.9540 c3        1 MOL      0.241836
     21 C8         -6.5470    2.1080   -2.0820 c         1 MOL      0.232118
     22 O5         -7.2460    2.8940   -2.7230 o         1 MOL     -0.535637
     23 C9         -4.1690    1.2410   -2.8740 c3        1 MOL     -0.010522
     24 C10        -3.6500    2.6680   -3.3730 c3        1 MOL     -0.161544
     25 C11        -3.4650    0.0810   -3.5450 c3        1 MOL     -0.074540
     26 C12        -2.1200    2.9430   -3.4050 c3        1 MOL     -0.074057
     27 H8         -6.6450   -0.6700   -3.7410 hn        1 MOL      0.232444
     28 H9         -5.9840    1.5160   -3.9510 h1        1 MOL      0.001037
     29 H10        -3.7960    1.0940   -1.8650 hc        1 MOL     -0.000673
     30 H11        -4.1340    3.4030   -2.7320 hc        1 MOL      0.031116
     31 H12        -4.0320    2.9270   -4.3580 hc        1 MOL      0.031116
     32 H13        -2.3980    0.0190   -3.3500 hc        1 MOL      0.001683
     33 H14        -3.9270   -0.7780   -3.0630 hc        1 MOL      0.001683
     34 H15        -3.6630   -0.0010   -4.6180 hc        1 MOL      0.001683
     35 H16        -1.7090    2.4210   -4.2790 hc        1 MOL      0.053090
     36 H17        -1.8130    3.9660   -3.5870 hc        1 MOL      0.053090
     37 H18        -1.6260    2.4820   -2.5490 hc        1 MOL      0.053090
     38 N3         -6.5000    1.9810   -0.7650 n         1 MOL      0.092372
     39 C13        -7.2560    2.8420    0.1790 c3        1 MOL      0.007712
     40 C14        -6.7250    4.2650    0.4020 c         1 MOL      0.517183
     41 O6         -7.4880    5.2480    0.3630 o         1 MOL     -0.592046
     42 C15        -7.6750    2.2630    1.4650 c3        1 MOL     -0.139977
     43 C16        -8.3490    0.9150    1.3130 c         1 MOL      0.774418
     44 O7         -8.2820    0.1250    2.2780 o         1 MOL     -0.719706
     45 O8         -9.0960    0.6770    0.3290 o         1 MOL     -0.719706
     46 H19        -5.8220    1.3080   -0.4200 hn        1 MOL      0.156608
     47 H20        -8.2000    3.0760   -0.3130 h1        1 MOL      0.044710
     48 H21        -8.3820    2.8620    2.0370 hc        1 MOL      0.023022
     49 H22        -6.8250    2.0670    2.1180 hc        1 MOL      0.023022
     50 N4         -5.4350    4.5200    0.5580 n         1 MOL     -0.543197
     51 C17        -4.3300    3.6020    0.9650 c3        1 MOL      0.239675
     52 C18        -3.1140    4.3230    1.5670 c         1 MOL      0.379143
     53 O9         -2.9890    5.5350    1.2530 o         1 MOL     -0.548014
     54 H23        -5.2130    5.5050    0.5190 hn        1 MOL      0.296842
     55 H24        -4.0780    3.0590    0.0580 h1        1 MOL      0.042287
     56 H25        -4.7280    2.8960    1.6950 h1        1 MOL      0.042287
     57 N5         -2.2380    3.6470    2.2880 n         1 MOL     -0.342995
     58 C19        -2.1130    2.2730    2.7250 c3        1 MOL      0.092212
     59 C20        -2.1140    1.2580    1.5820 c         1 MOL      0.143586
     60 O10        -3.1930    0.7830    1.2210 o         1 MOL     -0.445298
     61 C21        -3.0870    1.9790    3.9060 c3        1 MOL     -0.226462
     62 C22        -2.8990    0.7610    4.7580 c         1 MOL      0.592019
     63 O11        -3.7670    0.5320    5.6030 o         1 MOL     -0.648676
     64 O12        -2.0400   -0.1450    4.4840 o         1 MOL     -0.648676
     65 H26        -1.4730    4.2620    2.5200 hn        1 MOL      0.259565
     66 H27        -1.1630    2.2540    3.2470 h1        1 MOL      0.089410
     67 H28        -4.0960    1.8350    3.5000 hc        1 MOL      0.054115
     68 H29        -3.1000    2.8930    4.4990 hc        1 MOL      0.054115
     69 N6         -0.9980    0.8790    0.9480 n         1 MOL     -0.077116
     70 C23         0.4050    1.3310    1.1980 c3        1 MOL     -0.184281
     71 C24         0.6390    2.5470    0.3340 c         1 MOL      0.539739
     72 O13        -0.1840    3.0000   -0.4300 o         1 MOL     -0.471659
     73 H30        -1.1680    0.3250    0.1190 hn        1 MOL      0.211341
     74 H31         1.1460    0.5620    0.9900 h1        1 MOL      0.076536
     75 H32         0.5100    1.6420    2.2320 h1        1 MOL      0.076536
     76 N7          1.8760    2.9790    0.5050 n         1 MOL     -0.345094
     77 C25         2.4550    4.1970   -0.1430 c3        1 MOL     -0.103413
     78 C26         2.7840    3.9580   -1.6050 c         1 MOL      0.492484
     79 O14         2.5700    4.8440   -2.4090 o         1 MOL     -0.473804
     80 C27         3.7940    4.6000    0.5720 c3        1 MOL     -0.132241
     81 C28         3.6290    5.2760    1.9420 c3        1 MOL     -0.051664
     82 C29         2.7920    6.6290    1.9470 c         1 MOL      0.558722
     83 N8          2.5470    7.0500    3.1750 n         1 MOL     -0.698518
     84 O15         2.3450    7.2510    0.9460 o         1 MOL     -0.510722
     85 H33         2.4500    2.5890    1.2400 hn        1 MOL      0.265503
     86 H34         1.7180    4.9960   -0.1440 h1        1 MOL      0.161283
     87 H35         4.4520    5.2240   -0.0300 hc        1 MOL      0.081991
     88 H36         4.3580    3.6620    0.6620 hc        1 MOL      0.081991
     89 H37         4.5820    5.4980    2.4110 hc        1 MOL      0.024103
     90 H38         3.1320    4.5950    2.6240 hc        1 MOL      0.024103
     91 H39         2.9640    6.6420    3.9950 hn        1 MOL      0.333643
     92 H40         2.2080    8.0060    3.2320 hn        1 MOL      0.333643
     93 N9          3.3880    2.7540   -1.9650 n         1 MOL     -0.310663
     94 C30         4.0470    2.5600   -3.3070 c3        1 MOL     -0.366656
     95 C31         5.5190    2.1350   -3.2960 c         1 MOL      0.738519
     96 O16         6.2440    2.1680   -4.2820 o         1 MOL     -0.583480
     97 C32         3.1490    1.6160   -4.2010 c3        1 MOL      0.169472
     98 C33         1.7090    2.1830   -4.3300 c3        1 MOL     -0.157439
     99 C34         3.0510    0.1690   -3.7060 c3        1 MOL     -0.157439
    100 H41         3.6040    2.1190   -1.2180 hn        1 MOL      0.180893
    101 H42         4.0010    3.5120   -3.8260 h1        1 MOL      0.189091
    102 H43         3.5880    1.5650   -5.2010 hc        1 MOL      0.016266
    103 H44         1.1370    2.3110   -3.4100 hc        1 MOL      0.029304
    104 H45         1.8540    3.2110   -4.6520 hc        1 MOL      0.029304
    105 H46         1.0940    1.5700   -4.9980 hc        1 MOL      0.029304
    106 H47         4.0260   -0.1810   -3.3790 hc        1 MOL      0.029304
    107 H48         2.5860    0.2250   -2.7200 hc        1 MOL      0.029304
    108 H49         2.5200   -0.5120   -4.3710 hc        1 MOL      0.029304
    109 N10         6.0550    1.6760   -2.1600 n         1 MOL     -0.435379
    110 C35         7.4550    1.1130   -2.0260 c3        1 MOL      0.078465
    111 C36         7.5150   -0.3440   -1.6520 c         1 MOL      0.532180
    112 O17         8.4700   -0.9810   -1.8930 o         1 MOL     -0.551448
    113 C37         8.1640    1.8670   -0.8780 c3        1 MOL     -0.493542
    114 C38         8.5050    3.3310   -1.2950 c         1 MOL      0.694852
    115 N11         9.4530    3.5240   -2.1390 n         1 MOL     -0.731947
    116 O18         7.8700    4.2820   -0.8620 o         1 MOL     -0.564888
    117 H50         5.4560    1.6660   -1.3440 hn        1 MOL      0.280631
    118 H51         8.0560    1.3090   -2.9190 h1        1 MOL      0.084608
    119 H52         9.1620    1.4820   -0.6430 hc        1 MOL      0.141807
    120 H53         7.5810    1.7780    0.0280 hc        1 MOL      0.141807
    121 H54        10.0750    2.7460   -2.3080 hn        1 MOL      0.352611
    122 H55         9.6020    4.4300   -2.5510 hn        1 MOL      0.352611
    123 N12         6.5670   -0.8130   -0.8720 n         1 MOL     -0.341027
    124 C39         6.5280   -2.2440   -0.3170 c3        1 MOL      0.066333
    125 C40         5.0330   -2.7780   -0.0120 c         1 MOL      0.355837
    126 O19         4.0730   -1.9570   -0.0360 o         1 MOL     -0.460804
    127 C41         7.4800   -2.3300    0.9120 c3        1 MOL     -0.344611
    128 C42         7.2370   -1.3990    2.0680 ca        1 MOL     -0.008647
    129 C43         6.0980   -1.5730    2.8880 ca        1 MOL     -0.058670
    130 C44         8.1640   -0.3370    2.3380 ca        1 MOL     -0.058670
    131 C45         5.9770   -0.6340    3.9560 ca        1 MOL     -0.334985
    132 C46         8.0440    0.5920    3.3870 ca        1 MOL     -0.334985
    133 C47         6.8810    0.3910    4.2180 ca        1 MOL      0.389344
    134 O20         6.7490    1.2630    5.2400 oh        1 MOL     -0.537251
    135 H56         5.9260   -0.1010   -0.5420 hn        1 MOL      0.263126
    136 H57         6.9180   -2.8340   -1.1490 h1        1 MOL      0.081568
    137 H58         8.5420   -2.2670    0.7010 hc        1 MOL      0.127983
    138 H59         7.3650   -3.3360    1.3300 hc        1 MOL      0.127983
    139 H60         5.4590   -2.4470    2.8000 ha        1 MOL      0.114471
    140 H61         9.0480   -0.1940    1.7300 ha        1 MOL      0.114471
    141 H62         5.1720   -0.7060    4.6730 ha        1 MOL      0.164836
    142 H63         8.7990    1.3110    3.6710 ha        1 MOL      0.164836
    143 H64         5.9300    1.1060    5.7130 ho        1 MOL      0.399618
    144 N13         4.9750   -4.0240    0.4420 n         1 MOL     -0.436167
    145 C48         3.8140   -4.8800    0.8670 c3        1 MOL      0.275377
    146 C49         2.6470   -4.9640   -0.0450 c         1 MOL      0.131619
    147 O21         1.9400   -6.0230   -0.0860 o         1 MOL     -0.476229
    148 C50         3.4300   -4.6200    2.3450 c3        1 MOL     -0.024661
    149 C51         2.7740   -5.8040    2.9420 c3        1 MOL     -0.369054
    150 C52         2.5300   -5.4510    4.4420 c         1 MOL      0.751541
    151 O22         3.4800   -5.1930    5.2570 o         1 MOL     -0.720932
    152 O23         1.3660   -5.4770    4.8780 o         1 MOL     -0.720932
    153 H65         5.8880   -4.4280    0.5830 hn        1 MOL      0.261517
    154 H66         4.2130   -5.8820    0.7660 h1        1 MOL      0.031221
    155 H67         2.6880   -3.8180    2.4410 hc        1 MOL      0.060849
    156 H68         4.3450   -4.4290    2.9070 hc        1 MOL      0.060849
    157 H69         3.4300   -6.6780    2.9210 hc        1 MOL      0.088069
    158 H70         1.8390   -5.9900    2.4110 hc        1 MOL      0.088069
    159 N14         2.2700   -3.8760   -0.7680 n         1 MOL     -0.199109
    160 C53         1.1950   -3.9830   -1.8580 c3        1 MOL      0.036351
    161 C54         1.5730   -4.7000   -3.1330 c         1 MOL      0.411494
    162 O24         0.7670   -5.2540   -3.8800 o         1 MOL     -0.526712
    163 C55         0.8450   -2.5780   -2.2720 c3        1 MOL      0.141359
    164 C56         0.4760   -1.6370   -1.1070 c3        1 MOL      0.310786
    165 C57        -0.8580   -1.8950   -0.4310 c         1 MOL      0.233751
    166 O25        -0.8950   -2.5490    0.6660 o         1 MOL     -0.514350
    167 O26        -1.8940   -1.3450   -0.8090 o         1 MOL     -0.514350
    168 H71         2.8000   -3.0240   -0.6650 hn        1 MOL      0.211024
    169 H72         0.3680   -4.5900   -1.5090 h1        1 MOL      0.138605
    170 H73        -0.0170   -2.5910   -2.9440 hc        1 MOL     -0.061064
    171 H74         1.7250   -2.2720   -2.8460 hc        1 MOL     -0.061064
    172 H75         0.6020   -0.6290   -1.4960 hc        1 MOL     -0.073643
    173 H76         1.3080   -1.6170   -0.4010 hc        1 MOL     -0.073643
    174 N15         2.8730   -4.9640   -3.3550 n         1 MOL     -0.139586
    175 C58         3.3960   -5.8550   -4.4020 c3        1 MOL     -0.387147
    176 H77         2.8300   -5.7060   -5.3210 h1        1 MOL      0.135965
    177 H78         4.4470   -5.6270   -4.5820 h1        1 MOL      0.135965
    178 H79         3.2990   -6.8920   -4.0790 h1        1 MOL      0.135965
    179 H80         3.5240   -4.4900   -2.7360 hn        1 MOL      0.172786
    180 Ca1        -3.7850   -1.7840    0.8390 Ca        1 MOL      1.712920
    181 O27        -3.1740   -2.1650    3.5560 oh        1 MOL     -0.830424
    182 H81        -3.9980   -2.0550    4.0280 ho        1 MOL      0.399184
    183 H82        -2.6020   -1.4860    3.9010 ho        1 MOL      0.399184
    184 O28        -5.7470   -0.6210    2.5710 oh        1 MOL     -0.830424
    185 H83        -5.8760   -0.8460    3.4880 ho        1 MOL      0.399184
    186 H84        -6.6120   -0.3730    2.2500 ho        1 MOL      0.399184
    187 O29        -3.0840   -4.3710    1.6470 oh        1 MOL     -0.830424
    188 H85        -2.3640   -4.6410    2.2050 ho        1 MOL      0.399184
    189 H86        -3.3460   -5.1670    1.1810 ho        1 MOL      0.399184
@<TRIPOS>BOND
     1    1    2 1   
     2    1    4 1   
     3    1    5 1   
     4    1    6 1   
     5    2    3 2   
     6    2    7 1   
     7    7    8 1   
     8    7   15 1   
     9    8    9 1   
    10    8   11 1   
    11    8   16 1   
    12    9   10 2   
    13    9   19 1   
    14   11   12 1   
    15   11   17 1   
    16   11   18 1   
    17   12   13 1   
    18   12   14 1   
    19   19   20 1   
    20   19   27 1   
    21   20   21 1   
    22   20   23 1   
    23   20   28 1   
    24   21   22 2   
    25   21   38 1   
    26   23   24 1   
    27   23   25 1   
    28   23   29 1   
    29   24   26 1   
    30   24   30 1   
    31   24   31 1   
    32   25   32 1   
    33   25   33 1   
    34   25   34 1   
    35   26   35 1   
    36   26   36 1   
    37   26   37 1   
    38   38   39 1   
    39   38   46 1   
    40   39   40 1   
    41   39   42 1   
    42   39   47 1   
    43   40   41 2   
    44   40   50 1   
    45   42   43 1   
    46   42   48 1   
    47   42   49 1   
    48   43   44 1   
    49   43   45 1   
    50   50   51 1   
    51   50   54 1   
    52   51   52 1   
    53   51   55 1   
    54   51   56 1   
    55   52   53 2   
    56   52   57 1   
    57   57   58 1   
    58   57   65 1   
    59   58   59 1   
    60   58   61 1   
    61   58   66 1   
    62   59   60 2   
    63   59   69 1   
    64   61   62 1   
    65   61   67 1   
    66   61   68 1   
    67   62   63 1   
    68   62   64 1   
    69   69   70 1   
    70   69   73 1   
    71   70   71 1   
    72   70   74 1   
    73   70   75 1   
    74   71   72 2   
    75   71   76 1   
    76   76   77 1   
    77   76   85 1   
    78   77   78 1   
    79   77   80 1   
    80   77   86 1   
    81   78   79 2   
    82   78   93 1   
    83   80   81 1   
    84   80   87 1   
    85   80   88 1   
    86   81   82 1   
    87   81   89 1   
    88   81   90 1   
    89   82   83 1   
    90   82   84 2   
    91   83   91 1   
    92   83   92 1   
    93   93   94 1   
    94   93  100 1   
    95   94   95 1   
    96   94   97 1   
    97   94  101 1   
    98   95   96 2   
    99   95  109 1   
   100   97   98 1   
   101   97   99 1   
   102   97  102 1   
   103   98  103 1   
   104   98  104 1   
   105   98  105 1   
   106   99  106 1   
   107   99  107 1   
   108   99  108 1   
   109  109  110 1   
   110  109  117 1   
   111  110  111 1   
   112  110  113 1   
   113  110  118 1   
   114  111  112 2   
   115  111  123 1   
   116  113  114 1   
   117  113  119 1   
   118  113  120 1   
   119  114  115 1   
   120  114  116 2   
   121  115  121 1   
   122  115  122 1   
   123  123  124 1   
   124  123  135 1   
   125  124  125 1   
   126  124  127 1   
   127  124  136 1   
   128  125  126 2   
   129  125  144 1   
   130  127  128 1   
   131  127  137 1   
   132  127  138 1   
   133  128  129 ar  
   134  128  130 ar  
   135  129  131 ar  
   136  129  139 1   
   137  130  132 ar  
   138  130  140 1   
   139  131  133 ar  
   140  131  141 1   
   141  132  133 ar  
   142  132  142 1   
   143  133  134 1   
   144  134  143 1   
   145  144  145 1   
   146  144  153 1   
   147  145  146 1   
   148  145  148 1   
   149  145  154 1   
   150  146  147 2   
   151  146  159 1   
   152  148  149 1   
   153  148  155 1   
   154  148  156 1   
   155  149  150 1   
   156  149  157 1   
   157  149  158 1   
   158  150  151 1   
   159  150  152 1   
   160  159  160 1   
   161  159  168 1   
   162  160  161 1   
   163  160  163 1   
   164  160  169 1   
   165  161  162 2   
   166  161  174 1   
   167  163  164 1   
   168  163  170 1   
   169  163  171 1   
   170  164  165 1   
   171  164  172 1   
   172  164  173 1   
   173  165  166 1   
   174  165  167 1   
   175  174  175 1   
   176  174  179 1   
   177  175  176 1   
   178  175  177 1   
   179  175  178 1   
   180  181  182 1   
   181  181  183 1   
   182  184  185 1   
   183  184  186 1   
   184  187  188 1   
   185  187  189 1   
@<TRIPOS>SUBSTRUCTURE
     1 MOL         1 TEMP              0 ****  ****    0 ROOT
