@<TRIPOS>MOLECULE
MOL
  178   175     1     0     0
SMALL
resp


@<TRIPOS>ATOM
      1 C1         11.8820   -6.8280    0.8290 c3        1 MOL     -0.278060
      2 C2         10.9960   -6.1270   -0.1260 c         1 MOL      0.742084
      3 O1         10.4240   -6.7300   -1.0320 o         1 MOL     -0.616417
      4 H1         11.8700   -7.8970    0.6170 hc        1 MOL      0.066001
      5 H2         12.9000   -6.4500    0.7250 hc        1 MOL      0.066001
      6 H3         11.5310   -6.6550    1.8460 hc        1 MOL      0.066001
      7 N1         10.6770   -4.8380   -0.0980 n         1 MOL     -0.732130
      8 C3         11.0350   -3.8050    0.9130 c3        1 MOL      0.503677
      9 C4         11.5620   -2.4980    0.2220 c         1 MOL      0.287994
     10 O2         11.5220   -2.3570   -1.0140 o         1 MOL     -0.364545
     11 C5          9.8670   -3.4040    1.7980 c3        1 MOL     -0.395357
     12 C6          8.7340   -2.6560    1.0780 c         1 MOL      0.941642
     13 O3          8.6160   -2.5110   -0.1680 o         1 MOL     -0.804660
     14 O4          7.8730   -2.0610    1.7520 o         1 MOL     -0.804660
     15 H4         10.1820   -4.5740   -0.9380 hn        1 MOL      0.383287
     16 H5         11.8830   -4.1270    1.5060 h1        1 MOL     -0.047394
     17 H6         10.3840   -2.7830    2.5340 hc        1 MOL      0.052026
     18 H7          9.3170   -4.1660    2.3460 hc        1 MOL      0.052026
     19 N2         12.2030   -1.5740    1.0010 n         1 MOL     -0.508450
     20 C7         12.9740   -0.3470    0.6370 c3        1 MOL      0.184231
     21 C8         12.2220    0.6360   -0.3310 c         1 MOL      0.322110
     22 O5         12.9280    1.4080   -1.0270 o         1 MOL     -0.490405
     23 C9         14.3760   -0.7900    0.1470 c3        1 MOL     -0.212827
     24 H8         12.1300   -1.8000    1.9830 hn        1 MOL      0.286099
     25 H9         13.0700    0.1780    1.5770 h1        1 MOL      0.029902
     26 H10        14.9840    0.0960   -0.0300 hc        1 MOL      0.068613
     27 H11        14.9490   -1.3570    0.8680 hc        1 MOL      0.068613
     28 H12        14.2710   -1.4480   -0.7230 hc        1 MOL      0.068613
     29 N3         10.8480    0.7040   -0.3370 n         1 MOL     -0.025854
     30 C10        10.0920    1.7490   -0.9890 c3        1 MOL     -0.198587
     31 C11         8.7800    1.9320   -0.1830 c         1 MOL      0.462073
     32 O6          8.2820    1.0000    0.4740 o         1 MOL     -0.569955
     33 C12         9.7170    1.4080   -2.4090 c3        1 MOL      0.071256
     34 C13         9.0340    0.0590   -2.6400 c         1 MOL      0.584340
     35 O7          9.6750   -0.8010   -3.2750 o         1 MOL     -0.642387
     36 O8          7.8760   -0.0530   -2.1570 o         1 MOL     -0.642387
     37 H13        10.3260    0.1530    0.3310 hn        1 MOL      0.149755
     38 H14        10.7000    2.6550   -0.9110 h1        1 MOL      0.050011
     39 H15        10.6070    1.4720   -3.0330 hc        1 MOL     -0.006687
     40 H16         9.0350    2.1550   -2.8320 hc        1 MOL     -0.006687
     41 N4          8.1970    3.1470   -0.3650 n         1 MOL     -0.316540
     42 C14         6.9900    3.6470    0.3030 c3        1 MOL     -0.224144
     43 C15         5.7860    2.6390    0.3910 c         1 MOL      0.818165
     44 O9          5.7440    1.6810   -0.3200 o         1 MOL     -0.679024
     45 H17         8.6910    3.8190   -0.9260 hn        1 MOL      0.303359
     46 H18         6.7040    4.5440   -0.2460 h1        1 MOL      0.103243
     47 H19         7.2610    4.0380    1.2890 h1        1 MOL      0.103243
     48 N5          4.8930    2.7570    1.4400 n         1 MOL     -0.689011
     49 C16         3.6460    1.9780    1.5290 c3        1 MOL      0.101456
     50 C17         2.3630    2.7710    1.3560 c         1 MOL      0.529657
     51 O10         1.2280    2.2530    1.4410 o         1 MOL     -0.490428
     52 C18         3.7010    1.3540    2.9230 c3        1 MOL     -0.200003
     53 C19         4.8680    0.4230    3.1670 c         1 MOL      0.695149
     54 N6          5.5370    0.5760    4.2760 n         1 MOL     -0.749424
     55 O11         5.3440   -0.2750    2.2830 o         1 MOL     -0.546494
     56 H20         5.0060    3.5630    2.0420 hn        1 MOL      0.302988
     57 H21         3.7170    1.1830    0.7980 h1        1 MOL      0.161197
     58 H22         2.8150    0.7650    3.1270 hc        1 MOL      0.070422
     59 H23         3.7300    2.1810    3.6290 hc        1 MOL      0.070422
     60 H24         5.3740    1.2520    5.0150 hn        1 MOL      0.354633
     61 H25         6.4340    0.1140    4.2270 hn        1 MOL      0.354633
     62 N7          2.4610    4.1090    1.2490 n         1 MOL     -0.445141
     63 C20         1.2590    4.9700    1.0150 c3        1 MOL     -0.093174
     64 C21         0.9030    4.9540   -0.5240 c         1 MOL      0.565426
     65 O12         1.5680    4.3280   -1.3760 o         1 MOL     -0.536512
     66 H26         3.3640    4.5090    1.0200 hn        1 MOL      0.268400
     67 H27         1.4550    6.0190    1.2300 h1        1 MOL      0.106840
     68 H28         0.4020    4.5870    1.5760 h1        1 MOL      0.106840
     69 N8         -0.2790    5.4880   -0.8440 n         1 MOL     -0.367039
     70 C22        -1.2530    6.1760    0.0930 c3        1 MOL     -0.056399
     71 C23        -2.6870    5.6350    0.0700 c         1 MOL      0.609469
     72 O13        -3.4820    6.0930    0.8590 o         1 MOL     -0.587968
     73 C24        -1.3500    7.6940   -0.2170 c3        1 MOL      0.222506
     74 C25        -0.0480    8.4470   -0.1230 c3        1 MOL     -0.232598
     75 O14        -1.7850    7.7860   -1.6180 oh        1 MOL     -0.574481
     76 H29        -0.5450    5.4110   -1.8120 hn        1 MOL      0.294420
     77 H30        -0.9110    6.0130    1.1150 h1        1 MOL      0.069003
     78 H31        -2.0940    8.1820    0.4060 h1        1 MOL      0.050364
     79 H32        -2.4260    8.4840   -1.4720 ho        1 MOL      0.381655
     80 H33         0.4770    8.1570    0.7940 hc        1 MOL      0.052196
     81 H34         0.5930    8.2090   -0.9760 hc        1 MOL      0.052196
     82 H35        -0.2420    9.5260   -0.0450 hc        1 MOL      0.052196
     83 N9         -2.9870    4.5890   -0.7230 n         1 MOL     -0.463009
     84 C26        -4.2760    3.8990   -0.6440 c3        1 MOL     -0.050264
     85 C27        -3.9660    2.3680   -0.4950 c         1 MOL      0.540584
     86 O15        -2.9840    1.9300   -1.0710 o         1 MOL     -0.543259
     87 C28        -5.3130    4.2740   -1.8040 c3        1 MOL      0.206516
     88 C29        -4.5330    4.3470   -3.1560 c3        1 MOL      0.262828
     89 C30        -6.0420    5.6060   -1.5440 c3        1 MOL     -0.130768
     90 C31        -5.5030    4.3420   -4.3420 c3        1 MOL     -0.404492
     91 H36        -2.2580    4.2400   -1.3380 hn        1 MOL      0.231576
     92 H37        -4.7600    4.1770    0.2860 h1        1 MOL      0.189840
     93 H38        -6.0600    3.4710   -1.8090 hc        1 MOL     -0.018316
     94 H39        -3.8990    3.4740   -3.2770 hc        1 MOL     -0.049165
     95 H40        -4.0150    5.3050   -3.1250 hc        1 MOL     -0.049165
     96 H41        -6.3740    5.7220   -0.5110 hc        1 MOL      0.011953
     97 H42        -5.3740    6.4340   -1.7920 hc        1 MOL      0.011953
     98 H43        -6.9050    5.6870   -2.2110 hc        1 MOL      0.011953
     99 H44        -4.8670    4.2300   -5.2190 hc        1 MOL      0.083914
    100 H45        -6.1210    3.4410   -4.3560 hc        1 MOL      0.083914
    101 H46        -6.1390    5.2200   -4.4410 hc        1 MOL      0.083914
    102 N10        -4.7730    1.5000    0.1050 n         1 MOL     -0.505586
    103 C32        -6.0320    1.7510    0.8490 c3        1 MOL      0.116283
    104 C33        -6.8980    0.5130    0.7270 c         1 MOL      0.623752
    105 O16        -6.4190   -0.6120    0.4860 o         1 MOL     -0.547221
    106 C34        -5.6750    2.1010    2.3430 c3        1 MOL     -0.365582
    107 C35        -6.8540    2.5570    3.1630 c         1 MOL      0.742364
    108 O17        -6.8870    2.3350    4.4430 o         1 MOL     -0.727122
    109 O18        -7.8770    3.0280    2.6450 o         1 MOL     -0.727122
    110 H47        -4.4650    0.5420    0.1240 hn        1 MOL      0.334423
    111 H48        -6.4750    2.6540    0.4410 h1        1 MOL     -0.004189
    112 H49        -4.9080    2.8760    2.3560 hc        1 MOL      0.084194
    113 H50        -5.2250    1.1860    2.7510 hc        1 MOL      0.084194
    114 N11        -8.1800    0.7220    0.8400 n         1 MOL     -0.445153
    115 C36        -9.2730   -0.1500    0.7020 c3        1 MOL      0.333098
    116 C37        -9.3480   -0.6210   -0.7590 c         1 MOL      0.268865
    117 O19        -9.0050    0.1100   -1.6640 o         1 MOL     -0.499056
    118 C38       -10.4510    0.6450    1.2050 c3        1 MOL     -0.253055
    119 C39       -11.7910   -0.0770    1.0450 ca        1 MOL      0.125920
    120 C40       -12.5390   -0.0210   -0.1990 ca        1 MOL     -0.216222
    121 C41       -12.2240   -0.9460    2.0580 ca        1 MOL     -0.216222
    122 C42       -13.6890   -0.7870   -0.3370 ca        1 MOL     -0.050517
    123 C43       -13.2970   -1.8440    1.7990 ca        1 MOL     -0.050517
    124 C44       -14.1300   -1.6430    0.6930 ca        1 MOL     -0.193926
    125 H51        -8.4270    1.6830    1.0150 hn        1 MOL      0.239472
    126 H52        -9.0080   -1.0520    1.2550 h1        1 MOL      0.004899
    127 H53       -10.5110    1.5040    0.5470 hc        1 MOL      0.109554
    128 H54       -10.1880    0.9420    2.2210 hc        1 MOL      0.109554
    129 H55       -12.1780    0.7050   -0.9190 ha        1 MOL      0.143544
    130 H56       -11.6480   -1.1430    2.9470 ha        1 MOL      0.143544
    131 H57       -14.3300   -0.6590   -1.2000 ha        1 MOL      0.088372
    132 H58       -13.5760   -2.6480    2.4600 ha        1 MOL      0.088372
    133 H59       -15.0330   -2.2240    0.5480 ha        1 MOL      0.110782
    134 N12        -9.9430   -1.8160   -1.0340 n         1 MOL     -0.105512
    135 C45       -10.3170   -2.7850    0.0760 c3        1 MOL      0.159909
    136 C46        -9.0560   -3.6100    0.5270 c         1 MOL      0.465110
    137 O20        -8.7230   -3.5350    1.6940 o         1 MOL     -0.549021
    138 C47       -11.3460   -3.6110   -0.6030 c3        1 MOL      0.019557
    139 C48       -11.1810   -3.5350   -2.1040 c3        1 MOL     -0.114189
    140 C49       -10.2960   -2.2940   -2.3410 c3        1 MOL      0.141826
    141 H60       -10.7010   -2.3600    0.9920 h1        1 MOL     -0.004039
    142 H61       -11.3070   -4.6260   -0.1990 hc        1 MOL     -0.005485
    143 H62       -12.3460   -3.2480   -0.3440 hc        1 MOL     -0.005485
    144 H63       -10.6480   -4.4200   -2.4450 hc        1 MOL      0.022295
    145 H64       -12.1620   -3.4560   -2.5630 hc        1 MOL      0.022295
    146 H65        -9.3690   -2.6030   -2.8240 h1        1 MOL      0.001076
    147 H66       -10.8520   -1.5990   -2.9820 h1        1 MOL      0.001076
    148 N13        -8.4750   -4.4010   -0.3390 n         1 MOL     -0.601009
    149 C50        -7.1800   -4.9970   -0.1330 c3        1 MOL      0.519991
    150 C51        -7.2940   -6.5440   -0.1110 c         1 MOL      0.335265
    151 O21        -7.6340   -7.2140   -1.1020 o         1 MOL     -0.561148
    152 C52        -6.3660   -4.6200   -1.3430 c3        1 MOL     -0.137470
    153 C53        -4.9140   -5.1100   -1.1770 c3        1 MOL     -0.207824
    154 C54        -4.1060   -4.3480   -2.3130 c         1 MOL      0.680780
    155 O22        -4.3800   -4.5460   -3.5100 o         1 MOL     -0.712068
    156 O23        -3.3220   -3.4740   -1.9480 o         1 MOL     -0.712068
    157 H67        -8.7920   -4.4320   -1.2860 hn        1 MOL      0.284419
    158 H68        -6.6400   -4.6190    0.7290 h1        1 MOL      0.021004
    159 H69        -6.3210   -3.5300   -1.3570 hc        1 MOL      0.063160
    160 H70        -6.6690   -5.1240   -2.2550 hc        1 MOL      0.063160
    161 H71        -4.8180   -6.1890   -1.2780 hc        1 MOL     -0.001818
    162 H72        -4.6090   -4.8610   -0.1580 hc        1 MOL     -0.001818
    163 N14        -6.9740   -7.2420    0.9630 n         1 MOL     -0.272567
    164 C55        -6.6700   -6.7850    2.2630 c3        1 MOL     -0.151821
    165 H73        -7.4140   -6.0500    2.5710 h1        1 MOL      0.070789
    166 H74        -6.6820   -7.6260    2.9560 h1        1 MOL      0.070789
    167 H75        -5.6830   -6.3240    2.2650 h1        1 MOL      0.070789
    168 H76        -7.0970   -8.2360    0.8500 hn        1 MOL      0.248832
    169 Ca1         6.4680   -0.9230   -0.1390 Ca        1 MOL      1.798574
    170 O24         5.4050   -3.4850    0.4950 oh        1 MOL     -0.865048
    171 H77         4.8470   -3.8780    1.1580 ho        1 MOL      0.424497
    172 H78         5.3570   -4.0890   -0.2570 ho        1 MOL      0.424497
    173 O25         3.5280   -1.0250   -0.2380 oh        1 MOL     -0.865048
    174 H79         2.6470   -0.6870   -0.0760 ho        1 MOL      0.424497
    175 H80         3.4110   -1.7130   -0.8880 ho        1 MOL      0.424497
    176 O26         5.9140   -2.3780   -2.3510 oh        1 MOL     -0.865048
    177 H81         6.2210   -2.0920   -3.2110 ho        1 MOL      0.424497
    178 H82         5.8730   -3.3310   -2.4140 ho        1 MOL      0.424497
@<TRIPOS>BOND
     1    1    2 1   
     2    1    4 1   
     3    1    5 1   
     4    1    6 1   
     5    2    3 2   
     6    2    7 1   
     7    7    8 1   
     8    7   15 1   
     9    8    9 1   
    10    8   11 1   
    11    8   16 1   
    12    9   10 2   
    13    9   19 1   
    14   11   12 1   
    15   11   17 1   
    16   11   18 1   
    17   12   13 1   
    18   12   14 1   
    19   19   20 1   
    20   19   24 1   
    21   20   21 1   
    22   20   23 1   
    23   20   25 1   
    24   21   22 2   
    25   21   29 1   
    26   23   26 1   
    27   23   27 1   
    28   23   28 1   
    29   29   30 1   
    30   29   37 1   
    31   30   31 1   
    32   30   33 1   
    33   30   38 1   
    34   31   32 2   
    35   31   41 1   
    36   33   34 1   
    37   33   39 1   
    38   33   40 1   
    39   34   35 1   
    40   34   36 1   
    41   41   42 1   
    42   41   45 1   
    43   42   43 1   
    44   42   46 1   
    45   42   47 1   
    46   43   44 2   
    47   43   48 1   
    48   48   49 1   
    49   48   56 1   
    50   49   50 1   
    51   49   52 1   
    52   49   57 1   
    53   50   51 2   
    54   50   62 1   
    55   52   53 1   
    56   52   58 1   
    57   52   59 1   
    58   53   54 1   
    59   53   55 2   
    60   54   60 1   
    61   54   61 1   
    62   62   63 1   
    63   62   66 1   
    64   63   64 1   
    65   63   67 1   
    66   63   68 1   
    67   64   65 2   
    68   64   69 1   
    69   69   70 1   
    70   69   76 1   
    71   70   71 1   
    72   70   73 1   
    73   70   77 1   
    74   71   72 2   
    75   71   83 1   
    76   73   74 1   
    77   73   75 1   
    78   73   78 1   
    79   74   80 1   
    80   74   81 1   
    81   74   82 1   
    82   75   79 1   
    83   83   84 1   
    84   83   91 1   
    85   84   85 1   
    86   84   87 1   
    87   84   92 1   
    88   85   86 2   
    89   85  102 1   
    90   87   88 1   
    91   87   89 1   
    92   87   93 1   
    93   88   90 1   
    94   88   94 1   
    95   88   95 1   
    96   89   96 1   
    97   89   97 1   
    98   89   98 1   
    99   90   99 1   
   100   90  100 1   
   101   90  101 1   
   102  102  103 1   
   103  102  110 1   
   104  103  104 1   
   105  103  106 1   
   106  103  111 1   
   107  104  105 2   
   108  104  114 1   
   109  106  107 1   
   110  106  112 1   
   111  106  113 1   
   112  107  108 1   
   113  107  109 1   
   114  114  115 1   
   115  114  125 1   
   116  115  116 1   
   117  115  118 1   
   118  115  126 1   
   119  116  117 2   
   120  116  134 1   
   121  118  119 1   
   122  118  127 1   
   123  118  128 1   
   124  119  120 ar  
   125  119  121 ar  
   126  120  122 ar  
   127  120  129 1   
   128  121  123 ar  
   129  121  130 1   
   130  122  124 ar  
   131  122  131 1   
   132  123  124 ar  
   133  123  132 1   
   134  124  133 1   
   135  134  135 1   
   136  134  140 1   
   137  135  136 1   
   138  135  138 1   
   139  135  141 1   
   140  136  137 2   
   141  136  148 1   
   142  138  139 1   
   143  138  142 1   
   144  138  143 1   
   145  139  140 1   
   146  139  144 1   
   147  139  145 1   
   148  140  146 1   
   149  140  147 1   
   150  148  149 1   
   151  148  157 1   
   152  149  150 1   
   153  149  152 1   
   154  149  158 1   
   155  150  151 2   
   156  150  163 1   
   157  152  153 1   
   158  152  159 1   
   159  152  160 1   
   160  153  154 1   
   161  153  161 1   
   162  153  162 1   
   163  154  155 1   
   164  154  156 1   
   165  163  164 1   
   166  163  168 1   
   167  164  165 1   
   168  164  166 1   
   169  164  167 1   
   170  170  171 1   
   171  170  172 1   
   172  173  174 1   
   173  173  175 1   
   174  176  177 1   
   175  176  178 1   
@<TRIPOS>SUBSTRUCTURE
     1 MOL         1 TEMP              0 ****  ****    0 ROOT
