@<TRIPOS>MOLECULE
MOL
  192   187     1     0     0
SMALL
resp


@<TRIPOS>ATOM
      1 C1          5.8310   -0.2900    6.4150 c3        1 MOL     -0.229637
      2 C2          5.2470   -0.0850    4.9980 c         1 MOL      0.688433
      3 O1          4.6730    0.9850    4.7020 o         1 MOL     -0.585498
      4 H1          5.4170   -1.2000    6.8500 hc        1 MOL      0.056588
      5 H2          6.9150   -0.3790    6.3520 hc        1 MOL      0.056588
      6 H3          5.5720    0.5620    7.0420 hc        1 MOL      0.056588
      7 N1          5.3740   -1.0590    4.0650 n         1 MOL     -0.424708
      8 C3          5.2650   -0.9450    2.6170 c3        1 MOL      0.245954
      9 C4          3.8060   -0.7330    2.0880 c         1 MOL      0.219382
     10 O2          3.6400   -0.5880    0.8660 o         1 MOL     -0.363035
     11 C5          5.8550   -2.1380    1.8790 c3        1 MOL     -0.156327
     12 C6          6.9870   -2.9300    2.5290 c         1 MOL      0.636622
     13 O3          6.7640   -4.0700    3.0560 o         1 MOL     -0.693300
     14 O4          8.0520   -2.3040    2.6430 o         1 MOL     -0.693300
     15 H4          5.5380   -1.9970    4.4050 hn        1 MOL      0.237811
     16 H5          5.7530    0.0070    2.4290 h1        1 MOL      0.050532
     17 H6          6.0200   -1.8920    0.8200 hc        1 MOL     -0.023769
     18 H7          5.0080   -2.8160    1.9360 hc        1 MOL     -0.023769
     19 N2          2.8080   -0.7300    2.9480 n         1 MOL     -0.166830
     20 C7          1.3730   -0.7480    2.5810 c3        1 MOL      0.342555
     21 C8          0.7110    0.6040    2.7280 c         1 MOL      0.207515
     22 O5          0.9400    1.2860    3.6860 o         1 MOL     -0.475061
     23 C9          0.7710   -1.8080    3.4950 c3        1 MOL     -0.273333
     24 C10         1.1340   -3.2590    3.1310 c3        1 MOL     -0.029282
     25 C11         0.6430   -4.1390    4.3120 c3        1 MOL     -0.116323
     26 C12         1.0820   -5.6120    4.1450 c3        1 MOL      0.168950
     27 N3          0.4200   -6.3530    5.2650 n4        1 MOL     -0.385956
     28 H8          2.9690   -0.7630    3.9410 hn        1 MOL      0.134777
     29 H9          1.1860   -0.9970    1.5350 h1        1 MOL      0.005919
     30 H10        -0.3120   -1.7250    3.4940 hc        1 MOL      0.094281
     31 H11         1.0360   -1.6160    4.5310 hc        1 MOL      0.094281
     32 H12         2.2110   -3.3270    2.9790 hc        1 MOL      0.047641
     33 H13         0.5610   -3.4530    2.2160 hc        1 MOL      0.047641
     34 H14        -0.4450   -4.1650    4.2600 hc        1 MOL      0.056193
     35 H15         0.9350   -3.7090    5.2740 hc        1 MOL      0.056193
     36 H16         2.1670   -5.7410    4.1980 hx        1 MOL      0.056174
     37 H17         0.7750   -5.9650    3.1600 hx        1 MOL      0.056174
     38 H18         0.8620   -7.2440    5.4410 hn        1 MOL      0.327096
     39 H19         0.3930   -5.8430    6.1390 hn        1 MOL      0.327096
     40 H20        -0.5310   -6.5430    4.9810 hn        1 MOL      0.327096
     41 N4         -0.3020    0.9870    2.0050 n         1 MOL      0.022870
     42 C13        -1.1000    0.4170    0.9070 c3        1 MOL     -0.141169
     43 C14        -1.3870   -1.0980    1.1400 c         1 MOL      0.237038
     44 O6         -0.6150   -1.9770    0.6800 o         1 MOL     -0.445146
     45 C15        -0.5210    0.6990   -0.4220 c3        1 MOL     -1.100397
     46 C16        -0.6590    2.1280   -0.8450 c         1 MOL      0.821881
     47 O7         -0.1750    2.4600   -1.9950 o         1 MOL     -0.656659
     48 O8         -1.3070    2.9380   -0.1500 o         1 MOL     -0.656659
     49 H21        -0.5420    1.9340    2.2440 hn        1 MOL      0.141002
     50 H22        -2.0140    0.9990    0.9590 h1        1 MOL      0.053426
     51 H23        -1.0650    0.1330   -1.1740 hc        1 MOL      0.438019
     52 H24         0.5230    0.3840   -0.4710 hc        1 MOL      0.438019
     53 N5         -2.4260   -1.5880    1.8090 n         1 MOL     -0.219408
     54 C17        -3.4460   -0.6770    2.2180 c3        1 MOL     -0.055955
     55 C18        -4.5960   -1.4230    3.0440 c         1 MOL      0.531100
     56 O9         -4.3620   -2.5070    3.5000 o         1 MOL     -0.550557
     57 H25        -2.4630   -2.5600    2.0820 hn        1 MOL      0.267420
     58 H26        -3.9170   -0.1720    1.3760 h1        1 MOL      0.104819
     59 H27        -2.9820   -0.0010    2.9430 h1        1 MOL      0.104819
     60 N6         -5.7420   -0.7830    3.3060 n         1 MOL     -0.394341
     61 C19        -6.1040    0.5850    2.9240 c3        1 MOL      0.005853
     62 C20        -6.9580    0.6360    1.6770 c         1 MOL      0.354797
     63 O10        -7.6260   -0.3050    1.3100 o         1 MOL     -0.441147
     64 C21        -6.7440    1.2780    4.1250 c3        1 MOL     -0.167000
     65 C22        -7.8960    0.5400    4.8330 c         1 MOL      0.802543
     66 O11        -7.7560   -0.1210    5.8500 o         1 MOL     -0.668924
     67 O12        -9.0550    0.8580    4.5370 o         1 MOL     -0.668924
     68 H28        -6.3500   -1.2530    3.9600 hn        1 MOL      0.281529
     69 H29        -5.1980    1.1300    2.6580 h1        1 MOL      0.010413
     70 H30        -7.0610    2.2830    3.8580 hc        1 MOL      0.016901
     71 H31        -5.9150    1.3040    4.8290 hc        1 MOL      0.016901
     72 N7         -7.0470    1.7880    1.0350 n         1 MOL     -0.111311
     73 C23        -7.9430    2.0630   -0.1220 c3        1 MOL     -0.242598
     74 C24        -7.5680    1.2080   -1.4560 c         1 MOL      0.583317
     75 O13        -8.4240    0.6600   -2.1270 o         1 MOL     -0.513142
     76 H32        -6.4410    2.5200    1.3620 hn        1 MOL      0.164486
     77 H33        -7.9550    3.1320   -0.3290 h1        1 MOL      0.118235
     78 H34        -8.9120    1.6620    0.1770 h1        1 MOL      0.118235
     79 N8         -6.2800    1.1910   -1.8040 n         1 MOL     -0.328892
     80 C25        -5.6240    0.3260   -2.8690 c3        1 MOL     -0.304933
     81 C26        -4.4380   -0.4590   -2.2120 c         1 MOL      0.397530
     82 O14        -3.4990    0.1020   -1.6860 o         1 MOL     -0.334254
     83 C27        -5.1230    1.0310   -4.1220 c3        1 MOL      0.143908
     84 C28        -4.3600    2.3440   -3.8680 c3        1 MOL     -0.143071
     85 O15        -6.2590    1.3670   -4.8790 oh        1 MOL     -0.589596
     86 H35        -5.5960    1.6040   -1.1940 hn        1 MOL      0.167698
     87 H36        -6.3770   -0.4060   -3.1490 h1        1 MOL      0.193474
     88 H37        -4.5050    0.3300   -4.6880 h1        1 MOL      0.169703
     89 H38        -6.8700    1.8250   -4.2970 ho        1 MOL      0.400935
     90 H39        -5.0140    3.1420   -3.5180 hc        1 MOL      0.052857
     91 H40        -3.4500    2.1300   -3.3140 hc        1 MOL      0.052857
     92 H41        -4.0870    2.7100   -4.8560 hc        1 MOL      0.052857
     93 N9         -4.5450   -1.7440   -2.1860 n         1 MOL     -0.119491
     94 C29        -3.6750   -2.7170   -1.5070 c3        1 MOL     -0.351016
     95 C30        -2.3640   -3.0990   -2.3170 c         1 MOL      0.536726
     96 O16        -1.8230   -4.1750   -2.2220 o         1 MOL     -0.532984
     97 C31        -4.4590   -3.9530   -0.9790 c3        1 MOL      0.156599
     98 C32        -4.9960   -4.8800   -2.0670 c3        1 MOL      0.055429
     99 C33        -5.6390   -3.5830   -0.1070 c3        1 MOL     -0.167480
    100 C34        -5.5040   -6.2820   -1.5230 c3        1 MOL     -0.328574
    101 H42        -5.2350   -2.1080   -2.8240 hn        1 MOL      0.203877
    102 H43        -3.2920   -2.1990   -0.6280 h1        1 MOL      0.152648
    103 H44        -3.8080   -4.5580   -0.3430 hc        1 MOL      0.048218
    104 H45        -4.1960   -5.1290   -2.7630 hc        1 MOL      0.018808
    105 H46        -5.7890   -4.4440   -2.6810 hc        1 MOL      0.018808
    106 H47        -5.7700   -4.4570    0.5470 hc        1 MOL      0.042724
    107 H48        -5.4690   -2.7190    0.5290 hc        1 MOL      0.042724
    108 H49        -6.5690   -3.4240   -0.6480 hc        1 MOL      0.042724
    109 H50        -6.5340   -6.1360   -1.1800 hc        1 MOL      0.084268
    110 H51        -5.6860   -7.0560   -2.2700 hc        1 MOL      0.084268
    111 H52        -4.8560   -6.6840   -0.7390 hc        1 MOL      0.084268
    112 N10        -1.8420   -2.1140   -3.0510 n         1 MOL     -0.020690
    113 C35        -0.9400   -2.4660   -4.1390 c3        1 MOL     -0.107250
    114 C36         0.5030   -2.6040   -3.6690 c         1 MOL      0.464944
    115 O17         1.2880   -2.8270   -4.5290 o         1 MOL     -0.536923
    116 C37        -1.1570   -1.4240   -5.3020 c3        1 MOL      0.257690
    117 C38        -0.8660    0.0460   -4.8900 c3        1 MOL     -0.207274
    118 O18        -2.5550   -1.3670   -5.7370 oh        1 MOL     -0.653249
    119 H53        -2.1040   -1.1430   -2.9810 hn        1 MOL     -0.071509
    120 H54        -1.2980   -3.4020   -4.5520 h1        1 MOL      0.135134
    121 H55        -0.5580   -1.7410   -6.1520 h1        1 MOL      0.044794
    122 H56        -2.5070   -0.7090   -6.4320 ho        1 MOL      0.396197
    123 H57        -0.5180    0.6550   -5.7330 hc        1 MOL      0.076938
    124 H58        -1.7860    0.4110   -4.4320 hc        1 MOL      0.076938
    125 H59        -0.0890    0.1160   -4.1330 hc        1 MOL      0.076938
    126 N11         0.8280   -2.4420   -2.3870 n         1 MOL     -0.375677
    127 C39         2.1850   -2.2510   -1.9110 c3        1 MOL     -0.049531
    128 C40         2.8630   -1.1200   -2.5630 c         1 MOL      0.374159
    129 O19         2.5860   -0.7170   -3.7140 o         1 MOL     -0.488733
    130 C41         3.0300   -3.5200   -2.1580 c3        1 MOL      0.632056
    131 C42         4.0310   -3.8410   -1.1000 c3        1 MOL     -0.434121
    132 O20         3.5240   -3.5160   -3.4240 oh        1 MOL     -0.734259
    133 H60         0.0150   -2.2740   -1.8180 hn        1 MOL      0.205210
    134 H61         2.1940   -2.0310   -0.8350 h1        1 MOL      0.046866
    135 H62         2.3500   -4.3680   -2.1400 h1        1 MOL     -0.058762
    136 H63         2.8780   -3.2860   -4.0910 ho        1 MOL      0.458212
    137 H64         4.5330   -4.7540   -1.4330 hc        1 MOL      0.096610
    138 H65         4.7750   -3.0440   -1.0850 hc        1 MOL      0.096610
    139 H66         3.5240   -3.8150   -0.1400 hc        1 MOL      0.096610
    140 N12         3.8570   -0.4510   -1.9490 n         1 MOL     -0.261538
    141 C43         4.5990    0.6920   -2.5140 c3        1 MOL     -0.120780
    142 C44         4.4780    1.9800   -1.6440 c         1 MOL      0.660431
    143 O21         4.7290    3.0900   -2.1450 o         1 MOL     -0.656981
    144 C45         6.1600    0.3100   -2.6710 c3        1 MOL     -0.144620
    145 C46         6.4060   -0.3560   -4.0330 c3        1 MOL      0.139226
    146 C47         7.8440   -0.6260   -4.5020 c3        1 MOL     -0.156526
    147 C48         8.5790   -1.7130   -3.6160 c3        1 MOL      0.099200
    148 N13         9.8940   -2.1710   -4.0870 n4        1 MOL     -0.456236
    149 H67         4.0920   -0.6770   -0.9920 hn        1 MOL      0.242631
    150 H68         4.3490    0.9630   -3.5420 h1        1 MOL      0.128016
    151 H69         6.4230   -0.4680   -1.9570 hc        1 MOL      0.069964
    152 H70         6.8360    1.1380   -2.4940 hc        1 MOL      0.069964
    153 H71         5.8680    0.1670   -4.8290 hc        1 MOL      0.015876
    154 H72         5.9660   -1.3440   -3.9330 hc        1 MOL      0.015876
    155 H73         8.4240    0.2930   -4.5150 hc        1 MOL      0.043518
    156 H74         7.7880   -1.0570   -5.5030 hc        1 MOL      0.043518
    157 H75         7.8620   -2.5340   -3.6660 hx        1 MOL      0.082676
    158 H76         8.6610   -1.2700   -2.6220 hx        1 MOL      0.082676
    159 H77        10.4350   -1.3590   -4.3340 hn        1 MOL      0.356347
    160 H78        10.3730   -2.6750   -3.3590 hn        1 MOL      0.356347
    161 H79         9.7860   -2.7430   -4.9110 hn        1 MOL      0.356347
    162 N14         4.0720    1.9030   -0.4380 n         1 MOL     -0.234992
    163 C49         3.9220    3.1860    0.2840 c3        1 MOL     -0.215488
    164 C50         5.2550    3.7140    0.7770 c         1 MOL      0.522054
    165 O22         6.1220    3.0290    1.3170 o         1 MOL     -0.516805
    166 C51         2.9190    2.9770    1.4450 c3        1 MOL      0.783718
    167 C52         2.5490    4.3180    2.1780 c3        1 MOL     -0.984086
    168 C53         2.1030    5.5770    1.3810 c         1 MOL      1.155040
    169 O23         2.9030    6.3160    0.8460 o         1 MOL     -0.877899
    170 O24         0.8950    5.7220    1.4290 o         1 MOL     -0.877899
    171 H80         3.7310    1.0360   -0.0300 hn        1 MOL      0.036038
    172 H81         3.5180    4.0000   -0.3040 h1        1 MOL      0.081505
    173 H82         3.2580    2.1830    2.1170 hc        1 MOL     -0.152855
    174 H83         2.0070    2.6480    0.9500 hc        1 MOL     -0.152855
    175 H84         3.4420    4.6420    2.7090 hc        1 MOL      0.215667
    176 H85         1.7430    3.9950    2.8330 hc        1 MOL      0.215667
    177 N15         5.5100    5.0390    0.4680 n         1 MOL     -0.445475
    178 C54         6.7580    5.7140    0.9120 c3        1 MOL     -0.075882
    179 H86         7.0820    6.4170    0.1450 h1        1 MOL      0.062982
    180 H87         6.5710    6.2520    1.8420 h1        1 MOL      0.062982
    181 H88         7.5370    4.9680    1.0730 h1        1 MOL      0.062982
    182 H89         4.7690    5.6080    0.0960 hn        1 MOL      0.444076
    183 Ca1        -1.4850    5.3650    0.3060 Ca        1 MOL      1.610229
    184 O25        -3.5510    4.9470   -1.2400 oh        1 MOL     -0.800531
    185 H90        -4.4170    5.1350   -0.8680 ho        1 MOL      0.392862
    186 H91        -3.6700    5.0920   -2.1850 ho        1 MOL      0.392862
    187 O26        -1.8260    7.4580   -1.2840 oh        1 MOL     -0.800531
    188 H92        -1.9510    8.2600   -0.7880 ho        1 MOL      0.392862
    189 H93        -2.4540    7.5090   -1.9970 ho        1 MOL      0.392862
    190 O27         0.7770    4.8000   -1.4570 oh        1 MOL     -0.800531
    191 H94         0.4370    3.9010   -1.4350 ho        1 MOL      0.392862
    192 H95         1.7170    4.6970   -1.5850 ho        1 MOL      0.392862
@<TRIPOS>BOND
     1    1    2 1   
     2    1    4 1   
     3    1    5 1   
     4    1    6 1   
     5    2    3 2   
     6    2    7 1   
     7    7    8 1   
     8    7   15 1   
     9    8    9 1   
    10    8   11 1   
    11    8   16 1   
    12    9   10 2   
    13    9   19 1   
    14   11   12 1   
    15   11   17 1   
    16   11   18 1   
    17   12   13 1   
    18   12   14 1   
    19   19   20 1   
    20   19   28 1   
    21   20   21 1   
    22   20   23 1   
    23   20   29 1   
    24   21   22 2   
    25   21   41 1   
    26   23   24 1   
    27   23   30 1   
    28   23   31 1   
    29   24   25 1   
    30   24   32 1   
    31   24   33 1   
    32   25   26 1   
    33   25   34 1   
    34   25   35 1   
    35   26   27 1   
    36   26   36 1   
    37   26   37 1   
    38   27   38 1   
    39   27   39 1   
    40   27   40 1   
    41   41   42 1   
    42   41   49 1   
    43   42   43 1   
    44   42   45 1   
    45   42   50 1   
    46   43   44 2   
    47   43   53 1   
    48   45   46 1   
    49   45   51 1   
    50   45   52 1   
    51   46   47 1   
    52   46   48 1   
    53   53   54 1   
    54   53   57 1   
    55   54   55 1   
    56   54   58 1   
    57   54   59 1   
    58   55   56 2   
    59   55   60 1   
    60   60   61 1   
    61   60   68 1   
    62   61   62 1   
    63   61   64 1   
    64   61   69 1   
    65   62   63 2   
    66   62   72 1   
    67   64   65 1   
    68   64   70 1   
    69   64   71 1   
    70   65   66 1   
    71   65   67 1   
    72   72   73 1   
    73   72   76 1   
    74   73   74 1   
    75   73   77 1   
    76   73   78 1   
    77   74   75 2   
    78   74   79 1   
    79   79   80 1   
    80   79   86 1   
    81   80   81 1   
    82   80   83 1   
    83   80   87 1   
    84   81   82 2   
    85   81   93 1   
    86   83   84 1   
    87   83   85 1   
    88   83   88 1   
    89   84   90 1   
    90   84   91 1   
    91   84   92 1   
    92   85   89 1   
    93   93   94 1   
    94   93  101 1   
    95   94   95 1   
    96   94   97 1   
    97   94  102 1   
    98   95   96 2   
    99   95  112 1   
   100   97   98 1   
   101   97   99 1   
   102   97  103 1   
   103   98  100 1   
   104   98  104 1   
   105   98  105 1   
   106   99  106 1   
   107   99  107 1   
   108   99  108 1   
   109  100  109 1   
   110  100  110 1   
   111  100  111 1   
   112  112  113 1   
   113  112  119 1   
   114  113  114 1   
   115  113  116 1   
   116  113  120 1   
   117  114  115 2   
   118  114  126 1   
   119  116  117 1   
   120  116  118 1   
   121  116  121 1   
   122  117  123 1   
   123  117  124 1   
   124  117  125 1   
   125  118  122 1   
   126  126  127 1   
   127  126  133 1   
   128  127  128 1   
   129  127  130 1   
   130  127  134 1   
   131  128  129 2   
   132  128  140 1   
   133  130  131 1   
   134  130  132 1   
   135  130  135 1   
   136  131  137 1   
   137  131  138 1   
   138  131  139 1   
   139  132  136 1   
   140  140  141 1   
   141  140  149 1   
   142  141  142 1   
   143  141  144 1   
   144  141  150 1   
   145  142  143 2   
   146  142  162 1   
   147  144  145 1   
   148  144  151 1   
   149  144  152 1   
   150  145  146 1   
   151  145  153 1   
   152  145  154 1   
   153  146  147 1   
   154  146  155 1   
   155  146  156 1   
   156  147  148 1   
   157  147  157 1   
   158  147  158 1   
   159  148  159 1   
   160  148  160 1   
   161  148  161 1   
   162  162  163 1   
   163  162  171 1   
   164  163  164 1   
   165  163  166 1   
   166  163  172 1   
   167  164  165 2   
   168  164  177 1   
   169  166  167 1   
   170  166  173 1   
   171  166  174 1   
   172  167  168 1   
   173  167  175 1   
   174  167  176 1   
   175  168  169 1   
   176  168  170 1   
   177  177  178 1   
   178  177  182 1   
   179  178  179 1   
   180  178  180 1   
   181  178  181 1   
   182  184  185 1   
   183  184  186 1   
   184  187  188 1   
   185  187  189 1   
   186  190  191 1   
   187  190  192 1   
@<TRIPOS>SUBSTRUCTURE
     1 MOL         1 TEMP              0 ****  ****    0 ROOT
