@<TRIPOS>MOLECULE
MOL
  195   189     1     0     0
SMALL
resp


@<TRIPOS>ATOM
      1 C1         -6.3730   -2.8260    5.1680 c3        1 MOL     -0.369816
      2 C2         -5.4940   -2.3280    4.0470 c         1 MOL      0.719336
      3 O1         -5.1810   -3.1470    3.1900 o         1 MOL     -0.558131
      4 H1         -6.6690   -1.9860    5.7970 hc        1 MOL      0.093957
      5 H2         -7.2630   -3.2970    4.7500 hc        1 MOL      0.093957
      6 H3         -5.8230   -3.5520    5.7670 hc        1 MOL      0.093957
      7 N1         -5.2410   -0.9680    3.9460 n         1 MOL     -0.586034
      8 C3         -4.7240   -0.3300    2.7230 c3        1 MOL      0.532471
      9 C4         -3.1870   -0.5210    2.4050 c         1 MOL     -0.111600
     10 O2         -2.6950    0.0490    1.4320 o         1 MOL     -0.092423
     11 C5         -5.1290    1.2150    2.8610 c3        1 MOL     -0.148728
     12 C6         -6.7120    1.4570    3.0220 c         1 MOL      0.637714
     13 O3         -7.3160    1.0190    4.0180 o         1 MOL     -0.664875
     14 O4         -7.2200    2.1700    2.1480 o         1 MOL     -0.664875
     15 H4         -5.5670   -0.3370    4.6670 hn        1 MOL      0.252335
     16 H5         -5.2730   -0.7630    1.8840 h1        1 MOL     -0.025976
     17 H6         -4.8280    1.7540    1.9700 hc        1 MOL     -0.002635
     18 H7         -4.5360    1.5600    3.7090 hc        1 MOL     -0.002635
     19 N2         -2.3820   -1.2120    3.2160 n         1 MOL     -0.278069
     20 C7         -0.9450   -1.2710    2.9660 c3        1 MOL      0.253491
     21 C8         -0.6490   -2.4080    1.9890 c         1 MOL      0.246085
     22 O5         -1.2070   -3.4800    2.1000 o         1 MOL     -0.499428
     23 C9         -0.2290   -1.4050    4.3000 c3        1 MOL     -0.219201
     24 C10        -0.0210   -0.0650    5.0640 c3        1 MOL     -0.042720
     25 C11         0.9210   -0.2510    6.2890 c3        1 MOL     -0.147486
     26 C12         1.3800    1.1580    6.7030 c3        1 MOL      0.124681
     27 N3          2.3940    1.3030    7.7480 n4        1 MOL     -0.450717
     28 H8         -2.7540   -1.6210    4.0670 hn        1 MOL      0.221503
     29 H9         -0.6060   -0.3740    2.4410 h1        1 MOL      0.014977
     30 H10         0.7530   -1.8420    4.1360 hc        1 MOL      0.096853
     31 H11        -0.7420   -2.0850    4.9820 hc        1 MOL      0.096853
     32 H12        -0.9360    0.3740    5.4510 hc        1 MOL      0.069461
     33 H13         0.4630    0.6170    4.3690 hc        1 MOL      0.069461
     34 H14         1.8230   -0.8390    6.1240 hc        1 MOL      0.061008
     35 H15         0.2960   -0.7010    7.0480 hc        1 MOL      0.061008
     36 H16         0.4790    1.7220    6.9020 hx        1 MOL      0.063855
     37 H17         1.8010    1.5230    5.7640 hx        1 MOL      0.063855
     38 H18         2.5730    2.2960    7.8880 hn        1 MOL      0.358385
     39 H19         2.1650    0.7810    8.5800 hn        1 MOL      0.358385
     40 H20         3.2330    0.8810    7.3730 hn        1 MOL      0.358385
     41 N4          0.2550   -2.2790    1.0480 n         1 MOL      0.050400
     42 C13         0.8800   -1.1020    0.3980 c3        1 MOL     -0.485450
     43 C14         1.5060   -0.0840    1.3920 c         1 MOL      0.368743
     44 O6          1.0740    1.0580    1.5800 o         1 MOL     -0.463789
     45 C15         0.0050   -0.3910   -0.6230 c3        1 MOL     -0.303559
     46 C16        -0.2480   -1.3180   -1.8180 c         1 MOL      0.472148
     47 O7          0.3020   -2.4730   -1.8300 o         1 MOL     -0.616363
     48 O8         -0.9470   -0.8570   -2.7730 o         1 MOL     -0.616363
     49 H21         0.3630   -3.0830    0.4500 hn        1 MOL      0.073351
     50 H22         1.8010   -1.4380   -0.0680 h1        1 MOL      0.150318
     51 H23         0.5260    0.4980   -0.9820 hc        1 MOL      0.233338
     52 H24        -0.9320   -0.1560   -0.1230 hc        1 MOL      0.233338
     53 N5          2.6010   -0.4300    2.1470 n         1 MOL     -0.188373
     54 C17         3.2900   -1.7230    2.1710 c3        1 MOL     -0.100907
     55 C18         4.4910   -1.6850    3.0980 c         1 MOL      0.499298
     56 O9          4.5580   -0.9540    4.0550 o         1 MOL     -0.557180
     57 H25         2.9100    0.3370    2.7250 hn        1 MOL      0.242443
     58 H26         3.7170   -1.7790    1.1710 h1        1 MOL      0.082321
     59 H27         2.7200   -2.6260    2.3910 h1        1 MOL      0.082321
     60 N6          5.3870   -2.6160    2.9770 n         1 MOL     -0.343463
     61 C19         5.5590   -3.4620    1.7860 c3        1 MOL      0.001746
     62 C20         6.1940   -2.6460    0.5980 c         1 MOL      0.508310
     63 O10         6.8450   -1.6430    0.7320 o         1 MOL     -0.424306
     64 C21         6.3610   -4.7180    2.0950 c3        1 MOL     -0.140195
     65 C22         7.7870   -4.5260    2.5990 c         1 MOL      0.699754
     66 O11         8.0910   -4.4970    3.8410 o         1 MOL     -0.671555
     67 O12         8.6600   -4.4070    1.7040 o         1 MOL     -0.671555
     68 H28         6.0480   -2.7450    3.7360 hn        1 MOL      0.273005
     69 H29         4.6040   -3.8730    1.4800 h1        1 MOL      0.017574
     70 H30         6.4500   -5.3260    1.1880 hc        1 MOL      0.005538
     71 H31         5.8040   -5.2250    2.8830 hc        1 MOL      0.005538
     72 N7          6.0230   -3.1520   -0.6420 n         1 MOL     -0.313200
     73 C23         6.7390   -2.6380   -1.8550 c3        1 MOL     -0.190288
     74 C24         6.5060   -1.1190   -2.0820 c         1 MOL      0.622970
     75 O13         7.3320   -0.3800   -2.5680 o         1 MOL     -0.586542
     76 H32         5.3440   -3.9030   -0.7050 hn        1 MOL      0.227418
     77 H33         6.3800   -3.1950   -2.7280 h1        1 MOL      0.112105
     78 H34         7.8010   -2.8700   -1.8020 h1        1 MOL      0.112105
     79 N8          5.2700   -0.7180   -1.8240 n         1 MOL     -0.344810
     80 C25         4.8450    0.6710   -2.1110 c3        1 MOL      0.050947
     81 C26         5.1120    1.6790   -1.0620 c         1 MOL      0.507046
     82 O14         4.9990    1.4300    0.1120 o         1 MOL     -0.543821
     83 C27         3.3630    0.5840   -2.4230 c3        1 MOL      0.259649
     84 C28         2.9820   -0.2020   -3.6880 c3        1 MOL     -0.172193
     85 O15         2.8070    1.8940   -2.6800 oh        1 MOL     -0.638927
     86 H35         4.6380   -1.4300   -1.4850 hn        1 MOL      0.116238
     87 H36         5.2950    0.9780   -3.0550 h1        1 MOL      0.058423
     88 H37         2.8600    0.2430   -1.5210 h1        1 MOL      0.104751
     89 H38         1.8960    1.8170   -2.3990 ho        1 MOL      0.393788
     90 H39         3.7390   -0.8410   -4.1330 hc        1 MOL      0.035344
     91 H40         2.0180   -0.7020   -3.5910 hc        1 MOL      0.035344
     92 H41         2.9010    0.4740   -4.5370 hc        1 MOL      0.035344
     93 N9          5.3540    2.8960   -1.5160 n         1 MOL     -0.262489
     94 C29         5.4650    4.1550   -0.7640 c3        1 MOL     -0.018253
     95 C30         4.2120    5.0670   -0.6950 c         1 MOL      0.333504
     96 O16         4.2350    6.1220   -0.0520 o         1 MOL     -0.499516
     97 C31         6.7860    4.9150   -1.1050 c3        1 MOL     -0.065659
     98 C32         7.6280    4.4210   -2.3270 c3        1 MOL      0.024024
     99 C33         7.5830    4.8670    0.2270 c3        1 MOL     -0.015690
    100 C34         8.4650    3.1300   -2.1660 c3        1 MOL     -0.321924
    101 H42         5.4150    3.0500   -2.5170 hn        1 MOL      0.288381
    102 H43         5.5070    3.8940    0.2910 h1        1 MOL      0.135370
    103 H44         6.7620    6.0030   -1.2270 hc        1 MOL      0.055986
    104 H45         8.2260    5.2040   -2.7880 hc        1 MOL     -0.000947
    105 H46         6.8840    4.1490   -3.0830 hc        1 MOL     -0.000947
    106 H47         7.0770    5.4660    0.9880 hc        1 MOL      0.012001
    107 H48         7.7350    3.8800    0.6600 hc        1 MOL      0.012001
    108 H49         8.5150    5.4260    0.1900 hc        1 MOL      0.012001
    109 H50         8.8430    2.8350   -3.1470 hc        1 MOL      0.101920
    110 H51         9.3060    3.4410   -1.5560 hc        1 MOL      0.101920
    111 H52         7.9740    2.3710   -1.5460 hc        1 MOL      0.101920
    112 N10         3.0720    4.6480   -1.2690 n         1 MOL     -0.076195
    113 C35         1.6620    5.0850   -1.0680 c3        1 MOL     -0.222802
    114 C36         0.6450    3.9220   -0.8600 c         1 MOL      0.504253
    115 O17         0.4820    3.0040   -1.6600 o         1 MOL     -0.458655
    116 C37         1.1800    6.0090   -2.1800 c3        1 MOL      0.335060
    117 C38         1.5790    5.4590   -3.5830 c3        1 MOL     -0.352216
    118 O18         1.7810    7.2930   -1.9660 oh        1 MOL     -0.598611
    119 H53         3.1870    3.8230   -1.8460 hn        1 MOL      0.092319
    120 H54         1.6350    5.6820   -0.1530 h1        1 MOL      0.113741
    121 H55         0.1090    6.2050   -2.1840 h1        1 MOL      0.085321
    122 H56         2.7160    7.0750   -2.0130 ho        1 MOL      0.367447
    123 H57         2.6470    5.2350   -3.6210 hc        1 MOL      0.091947
    124 H58         1.0900    4.4850   -3.7010 hc        1 MOL      0.091947
    125 H59         1.2510    6.1520   -4.3520 hc        1 MOL      0.091947
    126 N11        -0.1800    3.9610    0.2400 n         1 MOL     -0.488506
    127 C39        -1.3450    3.1200    0.5370 c3        1 MOL      0.022695
    128 C40        -2.5260    3.2370   -0.3820 c         1 MOL      0.505623
    129 O19        -2.7260    4.2950   -1.0470 o         1 MOL     -0.544408
    130 C41        -1.7920    3.1990    1.9760 c3        1 MOL      0.406987
    131 C42        -2.4960    4.4440    2.4130 c3        1 MOL     -0.430991
    132 O20        -0.6790    3.1580    2.8240 oh        1 MOL     -0.662041
    133 H60         0.0510    4.7690    0.7960 hn        1 MOL      0.314057
    134 H61        -0.9800    2.1250    0.3240 h1        1 MOL     -0.001604
    135 H62        -2.4030    2.3260    2.2350 h1        1 MOL      0.038693
    136 H63        -0.1450    2.4650    2.4480 ho        1 MOL      0.366074
    137 H64        -3.1500    4.3520    3.2830 hc        1 MOL      0.112734
    138 H65        -1.7230    5.1550    2.7290 hc        1 MOL      0.112734
    139 H66        -2.9290    4.9820    1.5670 hc        1 MOL      0.112734
    140 N12        -3.3380    2.1690   -0.5590 n         1 MOL     -0.237560
    141 C43        -4.3660    2.0650   -1.6460 c3        1 MOL     -0.068332
    142 C44        -4.7590    0.6730   -2.0970 c         1 MOL      0.535791
    143 O21        -5.2700    0.4540   -3.2080 o         1 MOL     -0.597444
    144 C45        -5.6140    2.8140   -1.1510 c3        1 MOL      0.116033
    145 C46        -6.9300    2.6160   -1.8880 c3        1 MOL     -0.108570
    146 C47        -7.9570    3.6440   -1.4110 c3        1 MOL      0.036217
    147 C48        -9.3490    3.3600   -1.8720 c3        1 MOL      0.126024
    148 N13       -10.3130    4.4130   -1.6560 n4        1 MOL     -0.382617
    149 H67        -3.1350    1.3140   -0.0630 hn        1 MOL      0.015972
    150 H68        -4.0250    2.6270   -2.5120 h1        1 MOL      0.103131
    151 H69        -5.3440    3.8680   -1.2650 hc        1 MOL     -0.018817
    152 H70        -5.7220    2.6020   -0.0920 hc        1 MOL     -0.018817
    153 H71        -7.2680    1.6190   -1.5940 hc        1 MOL      0.037227
    154 H72        -6.8010    2.7990   -2.9550 hc        1 MOL      0.037227
    155 H73        -7.5510    4.5630   -1.8440 hc        1 MOL      0.017244
    156 H74        -8.0020    3.8290   -0.3320 hc        1 MOL      0.017244
    157 H75        -9.8180    2.5050   -1.3840 hx        1 MOL      0.058239
    158 H76        -9.3100    3.0320   -2.9080 hx        1 MOL      0.058239
    159 H77       -10.4170    4.6870   -0.6970 hn        1 MOL      0.322824
    160 H78       -10.0420    5.1830   -2.2570 hn        1 MOL      0.322824
    161 H79       -11.2290    4.1840   -2.0100 hn        1 MOL      0.322824
    162 N14        -4.4370   -0.3620   -1.2830 n         1 MOL      0.064547
    163 C49        -4.7880   -1.7720   -1.5050 c3        1 MOL     -0.995628
    164 C50        -6.3470   -1.9770   -1.3490 c         1 MOL      0.657567
    165 O22        -7.0220   -1.5620   -0.4140 o         1 MOL     -0.495554
    166 C51        -3.9440   -2.6610   -0.5360 c3        1 MOL      1.195208
    167 C52        -4.0610   -4.1690   -0.9010 c3        1 MOL     -1.458041
    168 C53        -3.8720   -4.5660   -2.3500 c         1 MOL      1.157680
    169 O23        -4.8160   -4.4890   -3.1530 o         1 MOL     -0.835941
    170 O24        -2.7220   -4.8450   -2.7780 o         1 MOL     -0.835941
    171 H80        -4.0370   -0.1920   -0.3650 hn        1 MOL      0.065957
    172 H81        -4.4910   -2.0390   -2.5140 h1        1 MOL      0.367423
    173 H82        -4.2920   -2.5070    0.4880 hc        1 MOL     -0.134714
    174 H83        -2.8770   -2.4570   -0.6370 hc        1 MOL     -0.134714
    175 H84        -5.1090   -4.4280   -0.7200 hc        1 MOL      0.319747
    176 H85        -3.4680   -4.7400   -0.1870 hc        1 MOL      0.319747
    177 N15        -6.9170   -2.8060   -2.2290 n         1 MOL     -0.498771
    178 C54        -8.3200   -3.1250   -2.2230 c3        1 MOL      0.020600
    179 H86        -8.6070   -3.5170   -3.1990 h1        1 MOL      0.033273
    180 H87        -8.5190   -3.8750   -1.4580 h1        1 MOL      0.033273
    181 H88        -8.8970   -2.2250   -2.0090 h1        1 MOL      0.033273
    182 H89        -6.4600   -3.2430   -3.0110 hn        1 MOL      0.467856
    183 Ca1        -0.1030   -4.9280   -2.8110 Ca        1 MOL      1.665182
    184 O25        -1.4340   -2.7300   -4.7360 oh        1 MOL     -0.819494
    185 H90        -0.7090   -2.6120   -5.3510 ho        1 MOL      0.409052
    186 H91        -1.2890   -2.0690   -4.0620 ho        1 MOL      0.409052
    187 O26         1.9250   -6.4370   -4.0580 oh        1 MOL     -0.819494
    188 H92         1.7230   -6.5850   -4.9780 ho        1 MOL      0.409052
    189 H93         2.8690   -6.5160   -4.0030 ho        1 MOL      0.409052
    190 O27        -0.8360   -5.3860   -5.5590 oh        1 MOL     -0.819494
    191 H94        -1.4870   -6.0440   -5.3000 ho        1 MOL      0.409052
    192 H95        -1.3070   -4.7960   -6.1330 ho        1 MOL      0.409052
    193 O28         1.5160   -3.4010   -4.3110 oh        1 MOL     -0.819494
    194 H96         1.3250   -2.8090   -5.0500 ho        1 MOL      0.409052
    195 H97         2.4690   -3.4730   -4.3140 ho        1 MOL      0.409052
@<TRIPOS>BOND
     1    1    2 1   
     2    1    4 1   
     3    1    5 1   
     4    1    6 1   
     5    2    3 2   
     6    2    7 1   
     7    7    8 1   
     8    7   15 1   
     9    8    9 1   
    10    8   11 1   
    11    8   16 1   
    12    9   10 2   
    13    9   19 1   
    14   11   12 1   
    15   11   17 1   
    16   11   18 1   
    17   12   13 1   
    18   12   14 1   
    19   19   20 1   
    20   19   28 1   
    21   20   21 1   
    22   20   23 1   
    23   20   29 1   
    24   21   22 2   
    25   21   41 1   
    26   23   24 1   
    27   23   30 1   
    28   23   31 1   
    29   24   25 1   
    30   24   32 1   
    31   24   33 1   
    32   25   26 1   
    33   25   34 1   
    34   25   35 1   
    35   26   27 1   
    36   26   36 1   
    37   26   37 1   
    38   27   38 1   
    39   27   39 1   
    40   27   40 1   
    41   41   42 1   
    42   41   49 1   
    43   42   43 1   
    44   42   45 1   
    45   42   50 1   
    46   43   44 2   
    47   43   53 1   
    48   45   46 1   
    49   45   51 1   
    50   45   52 1   
    51   46   47 1   
    52   46   48 1   
    53   53   54 1   
    54   53   57 1   
    55   54   55 1   
    56   54   58 1   
    57   54   59 1   
    58   55   56 2   
    59   55   60 1   
    60   60   61 1   
    61   60   68 1   
    62   61   62 1   
    63   61   64 1   
    64   61   69 1   
    65   62   63 2   
    66   62   72 1   
    67   64   65 1   
    68   64   70 1   
    69   64   71 1   
    70   65   66 1   
    71   65   67 1   
    72   72   73 1   
    73   72   76 1   
    74   73   74 1   
    75   73   77 1   
    76   73   78 1   
    77   74   75 2   
    78   74   79 1   
    79   79   80 1   
    80   79   86 1   
    81   80   81 1   
    82   80   83 1   
    83   80   87 1   
    84   81   82 2   
    85   81   93 1   
    86   83   84 1   
    87   83   85 1   
    88   83   88 1   
    89   84   90 1   
    90   84   91 1   
    91   84   92 1   
    92   85   89 1   
    93   93   94 1   
    94   93  101 1   
    95   94   95 1   
    96   94   97 1   
    97   94  102 1   
    98   95   96 2   
    99   95  112 1   
   100   97   98 1   
   101   97   99 1   
   102   97  103 1   
   103   98  100 1   
   104   98  104 1   
   105   98  105 1   
   106   99  106 1   
   107   99  107 1   
   108   99  108 1   
   109  100  109 1   
   110  100  110 1   
   111  100  111 1   
   112  112  113 1   
   113  112  119 1   
   114  113  114 1   
   115  113  116 1   
   116  113  120 1   
   117  114  115 2   
   118  114  126 1   
   119  116  117 1   
   120  116  118 1   
   121  116  121 1   
   122  117  123 1   
   123  117  124 1   
   124  117  125 1   
   125  118  122 1   
   126  126  127 1   
   127  126  133 1   
   128  127  128 1   
   129  127  130 1   
   130  127  134 1   
   131  128  129 2   
   132  128  140 1   
   133  130  131 1   
   134  130  132 1   
   135  130  135 1   
   136  131  137 1   
   137  131  138 1   
   138  131  139 1   
   139  132  136 1   
   140  140  141 1   
   141  140  149 1   
   142  141  142 1   
   143  141  144 1   
   144  141  150 1   
   145  142  143 2   
   146  142  162 1   
   147  144  145 1   
   148  144  151 1   
   149  144  152 1   
   150  145  146 1   
   151  145  153 1   
   152  145  154 1   
   153  146  147 1   
   154  146  155 1   
   155  146  156 1   
   156  147  148 1   
   157  147  157 1   
   158  147  158 1   
   159  148  159 1   
   160  148  160 1   
   161  148  161 1   
   162  162  163 1   
   163  162  171 1   
   164  163  164 1   
   165  163  166 1   
   166  163  172 1   
   167  164  165 2   
   168  164  177 1   
   169  166  167 1   
   170  166  173 1   
   171  166  174 1   
   172  167  168 1   
   173  167  175 1   
   174  167  176 1   
   175  168  169 1   
   176  168  170 1   
   177  177  178 1   
   178  177  182 1   
   179  178  179 1   
   180  178  180 1   
   181  178  181 1   
   182  184  185 1   
   183  184  186 1   
   184  187  188 1   
   185  187  189 1   
   186  190  191 1   
   187  190  192 1   
   188  193  194 1   
   189  193  195 1   
@<TRIPOS>SUBSTRUCTURE
     1 MOL         1 TEMP              0 ****  ****    0 ROOT
