@<TRIPOS>MOLECULE
MOL
  178   175     1     0     0
SMALL
resp


@<TRIPOS>ATOM
      1 C1          4.2940    0.1230   -4.9660 c3        1 MOL     -0.533981
      2 C2          5.0970   -1.0010   -4.3990 c         1 MOL      0.778776
      3 O1          5.0820   -2.1630   -4.7610 o         1 MOL     -0.657304
      4 H1          4.8740    0.6300   -5.7370 hc        1 MOL      0.135281
      5 H2          3.3760   -0.2700   -5.4030 hc        1 MOL      0.135281
      6 H3          4.0460    0.8300   -4.1740 hc        1 MOL      0.135281
      7 N1          5.8490   -0.5940   -3.4040 n         1 MOL     -0.520825
      8 C3          6.7820   -1.4390   -2.6340 c3        1 MOL      0.145046
      9 C4          6.1800   -1.5700   -1.2370 c         1 MOL      0.712237
     10 O2          5.6140   -0.6860   -0.6490 o         1 MOL     -0.584857
     11 C5          8.1780   -0.8080   -2.6610 c3        1 MOL     -0.308969
     12 C6          8.1830    0.6680   -2.2830 c         1 MOL      0.825950
     13 O3          7.7540    1.5030   -3.1080 o         1 MOL     -0.725311
     14 O4          8.4670    1.0190   -1.1190 o         1 MOL     -0.725311
     15 H4          5.9810    0.4030   -3.2880 hn        1 MOL      0.278172
     16 H5          6.8590   -2.4010   -3.1400 h1        1 MOL      0.038609
     17 H6          8.6510   -0.7080   -3.6370 hc        1 MOL      0.047235
     18 H7          8.7690   -1.4370   -1.9960 hc        1 MOL      0.047235
     19 N2          6.4710   -2.7080   -0.6310 n         1 MOL     -0.748889
     20 C7          6.2920   -2.9950    0.7600 c3        1 MOL      0.603485
     21 C8          4.7510   -3.0410    1.2130 c         1 MOL      0.400895
     22 O5          3.9010   -3.1250    0.3270 o         1 MOL     -0.515282
     23 C9          7.1900   -4.0890    1.2740 c3        1 MOL     -0.438811
     24 H8          7.0120   -3.3660   -1.1720 hn        1 MOL      0.314773
     25 H9          6.6430   -2.1010    1.2680 h1        1 MOL      0.021160
     26 H10         8.1510   -4.0150    0.7700 hc        1 MOL      0.091574
     27 H11         7.3130   -4.0240    2.3520 hc        1 MOL      0.091574
     28 H12         6.7060   -5.0590    1.1380 hc        1 MOL      0.091574
     29 N3          4.4480   -3.1180    2.5400 n         1 MOL     -0.731796
     30 C10         3.1570   -2.6390    3.0630 c3        1 MOL      0.006979
     31 C11         2.3000   -3.8540    3.6880 c         1 MOL      0.671630
     32 O6          1.5550   -3.6570    4.6130 o         1 MOL     -0.554001
     33 C12         3.3450   -1.3250    3.9360 c3        1 MOL     -0.072188
     34 C13         4.1170   -0.1750    3.2800 c         1 MOL      0.730687
     35 O7          3.9560    0.1570    2.1100 o         1 MOL     -0.701273
     36 O8          5.0340    0.2250    3.9570 o         1 MOL     -0.701273
     37 H13         5.1470   -3.3620    3.2240 hn        1 MOL      0.384942
     38 H14         2.5050   -2.2120    2.2950 h1        1 MOL      0.083066
     39 H15         3.6900   -1.5640    4.9320 hc        1 MOL      0.001673
     40 H16         2.3050   -1.0310    4.0490 hc        1 MOL      0.001673
     41 N4          2.5070   -5.0200    3.0780 n         1 MOL     -0.464001
     42 C14         1.8920   -6.3300    3.3980 c3        1 MOL     -0.180671
     43 C15         0.3240   -6.4090    3.2880 c         1 MOL      0.524971
     44 O9         -0.2820   -7.3150    3.8710 o         1 MOL     -0.536939
     45 H17         3.0940   -4.9770    2.2580 hn        1 MOL      0.355360
     46 H18         2.1900   -6.6750    4.3890 h1        1 MOL      0.109534
     47 H19         2.3520   -6.9580    2.6330 h1        1 MOL      0.109534
     48 N5         -0.3130   -5.4290    2.6030 n         1 MOL     -0.287221
     49 C16        -1.7100   -5.3600    2.3380 c3        1 MOL      0.022328
     50 C17        -1.9400   -5.0850    0.8810 c         1 MOL      0.430838
     51 O10        -1.1440   -4.3600    0.2350 o         1 MOL     -0.475372
     52 C18        -2.2670   -4.2170    3.1920 c3        1 MOL     -0.045002
     53 C19        -2.2740   -4.5210    4.7150 c         1 MOL      0.607483
     54 N6         -1.4600   -3.8770    5.4770 n         1 MOL     -0.688129
     55 O11        -3.2620   -5.0850    5.2090 o         1 MOL     -0.597823
     56 H20         0.1150   -4.6620    2.1040 hn        1 MOL      0.192347
     57 H21        -2.2940   -6.2480    2.5960 h1        1 MOL      0.049700
     58 H22        -3.2810   -4.1050    2.8160 hc        1 MOL      0.030787
     59 H23        -1.7830   -3.2510    3.0630 hc        1 MOL      0.030787
     60 H24        -0.6860   -3.2770    5.2320 hn        1 MOL      0.340011
     61 H25        -1.6410   -4.1010    6.4520 hn        1 MOL      0.340011
     62 N7         -3.0600   -5.5530    0.3520 n         1 MOL     -0.359734
     63 C20        -3.3580   -5.6030   -1.1160 c3        1 MOL     -0.087216
     64 C21        -4.6280   -4.8200   -1.4990 c         1 MOL      0.601572
     65 O12        -5.3710   -4.2470   -0.6690 o         1 MOL     -0.497413
     66 H26        -3.7010   -6.0480    0.9490 hn        1 MOL      0.286026
     67 H27        -3.5190   -6.6580   -1.3270 h1        1 MOL      0.095051
     68 H28        -2.5330   -5.2080   -1.7100 h1        1 MOL      0.095051
     69 N8         -4.9620   -4.7510   -2.8240 n         1 MOL     -0.531577
     70 C22        -6.0870   -3.9150   -3.3440 c3        1 MOL     -0.185300
     71 C23        -5.7910   -2.4200   -3.2810 c         1 MOL      0.487620
     72 O13        -6.6980   -1.6090   -3.2610 o         1 MOL     -0.560229
     73 C24        -6.6620   -4.3010   -4.6650 c3        1 MOL      0.419195
     74 C25        -5.7780   -4.2030   -5.8810 c3        1 MOL     -0.156695
     75 O14        -7.1300   -5.5480   -4.7310 oh        1 MOL     -0.603929
     76 H29        -4.4350   -5.1950   -3.5660 hn        1 MOL      0.279969
     77 H30        -6.9550   -4.0700   -2.7020 h1        1 MOL      0.133740
     78 H31        -7.5530   -3.6930   -4.8380 h1        1 MOL      0.049136
     79 H32        -6.3390   -6.0780   -4.5950 ho        1 MOL      0.354708
     80 H33        -6.3020   -4.5940   -6.7520 hc        1 MOL      0.026564
     81 H34        -5.5430   -3.1670   -6.1310 hc        1 MOL      0.026564
     82 H35        -4.9000   -4.8570   -5.8160 hc        1 MOL      0.026564
     83 N9         -4.5270   -2.1590   -3.4300 n         1 MOL     -0.205674
     84 C26        -4.0080   -0.7910   -3.4880 c3        1 MOL     -0.062369
     85 C27        -2.7110   -0.8400   -2.6680 c         1 MOL      0.375979
     86 O15        -1.8190   -1.7520   -2.7410 o         1 MOL     -0.478854
     87 C28        -3.8640   -0.4980   -5.0240 c3        1 MOL      0.168049
     88 C29        -5.1150    0.1660   -5.7110 c3        1 MOL     -0.018709
     89 C30        -2.6780    0.4960   -5.1010 c3        1 MOL     -0.133576
     90 C31        -5.5010    1.5190   -5.0270 c3        1 MOL     -0.119923
     91 H36        -3.8990   -2.9480   -3.4600 hn        1 MOL      0.188628
     92 H37        -4.6760   -0.0880   -3.0010 h1        1 MOL      0.120845
     93 H38        -3.5140   -1.4070   -5.5070 hc        1 MOL     -0.010002
     94 H39        -5.9790   -0.4700   -5.4990 hc        1 MOL      0.004466
     95 H40        -4.9850    0.1660   -6.7880 hc        1 MOL      0.004466
     96 H41        -2.6710    0.9260   -6.1070 hc        1 MOL      0.031643
     97 H42        -2.6990    1.2940   -4.3570 hc        1 MOL      0.031643
     98 H43        -1.7490   -0.0740   -5.0660 hc        1 MOL      0.031643
     99 H44        -6.4230    1.8090   -5.5260 hc        1 MOL      0.029679
    100 H45        -5.6290    1.3330   -3.9520 hc        1 MOL      0.029679
    101 H46        -4.7050    2.2400   -5.2250 hc        1 MOL      0.029679
    102 N10        -2.5840    0.2310   -1.9040 n         1 MOL     -0.373840
    103 C32        -1.3970    0.6850   -1.1280 c3        1 MOL      0.200417
    104 C33        -1.7500    1.5460    0.1530 c         1 MOL      0.372305
    105 O16        -1.0200    2.4380    0.5690 o         1 MOL     -0.346157
    106 C34        -0.3670    1.4400   -1.9980 c3        1 MOL     -0.134113
    107 C35         1.0300    1.6480   -1.3310 c         1 MOL      0.899161
    108 O17         1.3120    1.2330   -0.2160 o         1 MOL     -0.825682
    109 O18         1.9740    2.1400   -2.0090 o         1 MOL     -0.825682
    110 H47        -3.3600    0.8730   -1.9240 hn        1 MOL      0.242410
    111 H48        -0.8700   -0.2290   -0.8340 h1        1 MOL      0.061336
    112 H49        -0.7840    2.4150   -2.2400 hc        1 MOL      0.019781
    113 H50        -0.2520    0.9230   -2.9500 hc        1 MOL      0.019781
    114 N11        -3.0400    1.4930    0.6350 n         1 MOL     -0.432502
    115 C36        -3.3890    2.2440    1.8170 c3        1 MOL      0.263671
    116 C37        -3.6760    3.7090    1.5480 c         1 MOL      0.180261
    117 O19        -4.5950    3.9780    0.7800 o         1 MOL     -0.490973
    118 C38        -4.6890    1.5470    2.3990 c3        1 MOL     -0.157041
    119 C39        -5.0110    2.0200    3.8670 ca        1 MOL      0.127638
    120 C40        -5.9510    3.0300    4.0540 ca        1 MOL     -0.235632
    121 C41        -4.2720    1.5920    4.9820 ca        1 MOL     -0.235632
    122 C42        -6.0850    3.5970    5.2920 ca        1 MOL     -0.020859
    123 C43        -4.4220    2.1610    6.2270 ca        1 MOL     -0.020859
    124 C44        -5.3620    3.1370    6.3710 ca        1 MOL     -0.171353
    125 H51        -3.7290    0.7750    0.4400 hn        1 MOL      0.227913
    126 H52        -2.5530    2.1230    2.5140 h1        1 MOL      0.007969
    127 H53        -4.5060    0.4800    2.5000 hc        1 MOL      0.078452
    128 H54        -5.5430    1.6180    1.7170 hc        1 MOL      0.078452
    129 H55        -6.4030    3.5120    3.1980 ha        1 MOL      0.135018
    130 H56        -3.4810    0.8620    4.8640 ha        1 MOL      0.135018
    131 H57        -6.8220    4.3520    5.5160 ha        1 MOL      0.086879
    132 H58        -3.8010    1.9030    7.0740 ha        1 MOL      0.086879
    133 H59        -5.4340    3.6570    7.3230 ha        1 MOL      0.098057
    134 N12        -2.9870    4.7030    2.2130 n         1 MOL      0.104885
    135 C45        -3.0830    6.0950    1.8270 c3        1 MOL     -0.039485
    136 C46        -2.0150    6.5170    0.8000 c         1 MOL      0.278148
    137 O20        -2.0680    7.6710    0.2990 o         1 MOL     -0.508591
    138 C47        -2.8890    6.8420    3.1080 c3        1 MOL     -0.038247
    139 C48        -2.0160    6.0070    3.9460 c3        1 MOL     -0.081393
    140 C49        -2.2900    4.6240    3.4880 c3        1 MOL     -0.105344
    141 H60        -4.0740    6.3540    1.4320 h1        1 MOL      0.080614
    142 H61        -2.4170    7.8100    2.9300 hc        1 MOL      0.032774
    143 H62        -3.8430    6.9870    3.6160 hc        1 MOL      0.032774
    144 H63        -1.0240    6.3390    3.6470 hc        1 MOL      0.052650
    145 H64        -2.2050    6.0680    5.0150 hc        1 MOL      0.052650
    146 H65        -1.3100    4.1460    3.3880 h1        1 MOL      0.056117
    147 H66        -2.8810    4.0850    4.2290 h1        1 MOL      0.056117
    148 N13        -0.9500    5.7100    0.4890 n         1 MOL      0.107192
    149 C50         0.1340    6.2310   -0.4170 c3        1 MOL     -0.667337
    150 C51        -0.2480    6.6150   -1.8260 c         1 MOL      0.574712
    151 O21         0.4430    7.4960   -2.3750 o         1 MOL     -0.545348
    152 C52         1.4450    5.3730   -0.4380 c3        1 MOL      0.217317
    153 C53         2.2130    5.4090    0.9340 c3        1 MOL     -0.214674
    154 C54         3.3620    4.3740    0.8500 c         1 MOL      0.771580
    155 O22         4.2000    4.5460   -0.0740 o         1 MOL     -0.773112
    156 O23         3.3190    3.3170    1.4520 o         1 MOL     -0.773112
    157 H67        -1.0290    4.7540    0.8060 hn        1 MOL      0.099327
    158 H68         0.5300    7.1030    0.1020 h1        1 MOL      0.251798
    159 H69         2.1620    5.7280   -1.1800 hc        1 MOL      0.045549
    160 H70         1.3330    4.3380   -0.7550 hc        1 MOL      0.045549
    161 H71         1.5230    5.0920    1.7250 hc        1 MOL      0.012756
    162 H72         2.5650    6.4050    1.1900 hc        1 MOL      0.012756
    163 N14        -1.1380    5.9410   -2.5190 n         1 MOL     -0.223768
    164 C55        -1.4930    5.9930   -3.9000 c3        1 MOL     -0.106502
    165 H73        -1.4660    4.9870   -4.3200 h1        1 MOL      0.058552
    166 H74        -2.4990    6.4010   -4.0010 h1        1 MOL      0.058552
    167 H75        -0.7870    6.6290   -4.4340 h1        1 MOL      0.058552
    168 H76        -1.6330    5.1460   -2.1280 hn        1 MOL      0.221761
    169 Ca1         3.8540    1.3900   -0.1970 Ca        1 MOL      1.809505
    170 O24         6.4730    1.7810    0.3410 oh        1 MOL     -0.913517
    171 H77         7.0650    1.6380   -0.3930 ho        1 MOL      0.438999
    172 H78         7.0350    1.7960    1.1170 ho        1 MOL      0.438999
    173 O25         5.4020    2.1400   -2.4450 oh        1 MOL     -0.913517
    174 H79         6.3250    1.9150   -2.5740 ho        1 MOL      0.438999
    175 H80         5.2790    2.9650   -2.9110 ho        1 MOL      0.438999
    176 O26         2.9360   -0.9810   -0.9850 oh        1 MOL     -0.913517
    177 H81         2.1060   -1.4360   -1.1700 ho        1 MOL      0.438999
    178 H82         3.3620   -1.5280   -0.3330 ho        1 MOL      0.438999
@<TRIPOS>BOND
     1    1    2 1   
     2    1    4 1   
     3    1    5 1   
     4    1    6 1   
     5    2    3 2   
     6    2    7 1   
     7    7    8 1   
     8    7   15 1   
     9    8    9 1   
    10    8   11 1   
    11    8   16 1   
    12    9   10 2   
    13    9   19 1   
    14   11   12 1   
    15   11   17 1   
    16   11   18 1   
    17   12   13 1   
    18   12   14 1   
    19   19   20 1   
    20   19   24 1   
    21   20   21 1   
    22   20   23 1   
    23   20   25 1   
    24   21   22 2   
    25   21   29 1   
    26   23   26 1   
    27   23   27 1   
    28   23   28 1   
    29   29   30 1   
    30   29   37 1   
    31   30   31 1   
    32   30   33 1   
    33   30   38 1   
    34   31   32 2   
    35   31   41 1   
    36   33   34 1   
    37   33   39 1   
    38   33   40 1   
    39   34   35 1   
    40   34   36 1   
    41   41   42 1   
    42   41   45 1   
    43   42   43 1   
    44   42   46 1   
    45   42   47 1   
    46   43   44 2   
    47   43   48 1   
    48   48   49 1   
    49   48   56 1   
    50   49   50 1   
    51   49   52 1   
    52   49   57 1   
    53   50   51 2   
    54   50   62 1   
    55   52   53 1   
    56   52   58 1   
    57   52   59 1   
    58   53   54 1   
    59   53   55 2   
    60   54   60 1   
    61   54   61 1   
    62   62   63 1   
    63   62   66 1   
    64   63   64 1   
    65   63   67 1   
    66   63   68 1   
    67   64   65 2   
    68   64   69 1   
    69   69   70 1   
    70   69   76 1   
    71   70   71 1   
    72   70   73 1   
    73   70   77 1   
    74   71   72 2   
    75   71   83 1   
    76   73   74 1   
    77   73   75 1   
    78   73   78 1   
    79   74   80 1   
    80   74   81 1   
    81   74   82 1   
    82   75   79 1   
    83   83   84 1   
    84   83   91 1   
    85   84   85 1   
    86   84   87 1   
    87   84   92 1   
    88   85   86 2   
    89   85  102 1   
    90   87   88 1   
    91   87   89 1   
    92   87   93 1   
    93   88   90 1   
    94   88   94 1   
    95   88   95 1   
    96   89   96 1   
    97   89   97 1   
    98   89   98 1   
    99   90   99 1   
   100   90  100 1   
   101   90  101 1   
   102  102  103 1   
   103  102  110 1   
   104  103  104 1   
   105  103  106 1   
   106  103  111 1   
   107  104  105 2   
   108  104  114 1   
   109  106  107 1   
   110  106  112 1   
   111  106  113 1   
   112  107  108 1   
   113  107  109 1   
   114  114  115 1   
   115  114  125 1   
   116  115  116 1   
   117  115  118 1   
   118  115  126 1   
   119  116  117 2   
   120  116  134 1   
   121  118  119 1   
   122  118  127 1   
   123  118  128 1   
   124  119  120 ar  
   125  119  121 ar  
   126  120  122 ar  
   127  120  129 1   
   128  121  123 ar  
   129  121  130 1   
   130  122  124 ar  
   131  122  131 1   
   132  123  124 ar  
   133  123  132 1   
   134  124  133 1   
   135  134  135 1   
   136  134  140 1   
   137  135  136 1   
   138  135  138 1   
   139  135  141 1   
   140  136  137 2   
   141  136  148 1   
   142  138  139 1   
   143  138  142 1   
   144  138  143 1   
   145  139  140 1   
   146  139  144 1   
   147  139  145 1   
   148  140  146 1   
   149  140  147 1   
   150  148  149 1   
   151  148  157 1   
   152  149  150 1   
   153  149  152 1   
   154  149  158 1   
   155  150  151 2   
   156  150  163 1   
   157  152  153 1   
   158  152  159 1   
   159  152  160 1   
   160  153  154 1   
   161  153  161 1   
   162  153  162 1   
   163  154  155 1   
   164  154  156 1   
   165  163  164 1   
   166  163  168 1   
   167  164  165 1   
   168  164  166 1   
   169  164  167 1   
   170  170  171 1   
   171  170  172 1   
   172  173  174 1   
   173  173  175 1   
   174  176  177 1   
   175  176  178 1   
@<TRIPOS>SUBSTRUCTURE
     1 MOL         1 TEMP              0 ****  ****    0 ROOT
