@<TRIPOS>MOLECULE
MOL
  195   189     1     0     0
SMALL
resp


@<TRIPOS>ATOM
      1 C1         -3.8410    7.8970   -0.7400 c3        1 MOL     -0.328971
      2 C2         -3.4750    6.4240   -0.5630 c         1 MOL      0.659593
      3 O1         -3.0220    5.8780    0.4860 o         1 MOL     -0.598361
      4 H1         -3.1070    8.3790   -1.3870 hc        1 MOL      0.092905
      5 H2         -4.8300    7.9750   -1.1920 hc        1 MOL      0.092905
      6 H3         -3.8460    8.3900    0.2320 hc        1 MOL      0.092905
      7 N1         -3.7220    5.5730   -1.6160 n         1 MOL     -0.568224
      8 C3         -3.7250    4.1030   -1.6830 c3        1 MOL      0.428242
      9 C4         -2.3060    3.4740   -1.5520 c         1 MOL      0.213764
     10 O2         -2.1220    2.3680   -2.1390 o         1 MOL     -0.549603
     11 C5         -4.4750    3.5420   -2.9280 c3        1 MOL     -0.219812
     12 C6         -5.8640    4.2590   -3.0800 c         1 MOL      0.649524
     13 O3         -5.8530    5.5280   -3.2370 o         1 MOL     -0.638644
     14 O4         -6.9150    3.5630   -3.0190 o         1 MOL     -0.638644
     15 H4         -4.1500    6.0050   -2.4210 hn        1 MOL      0.222174
     16 H5         -4.2500    3.7440   -0.7910 h1        1 MOL      0.028867
     17 H6         -4.6460    2.4650   -2.9220 hc        1 MOL      0.033063
     18 H7         -3.9120    3.6580   -3.8500 hc        1 MOL      0.033063
     19 N2         -1.3180    4.1330   -0.9870 n         1 MOL     -0.239756
     20 C7          0.1510    3.6730   -1.0750 c3        1 MOL      0.295132
     21 C8          0.8210    3.6680    0.3140 c         1 MOL      0.628533
     22 O5          0.5880    4.6460    1.0130 o         1 MOL     -0.581368
     23 C9          0.8660    4.4910   -2.1800 c3        1 MOL     -0.425117
     24 C10         0.6790    4.0440   -3.5560 c3        1 MOL      0.185278
     25 C11         1.7760    4.5170   -4.5230 c3        1 MOL     -0.130640
     26 C12         1.3780    4.1640   -5.9400 c3        1 MOL      0.191488
     27 N3          2.1750    4.9600   -6.9060 n4        1 MOL     -0.446666
     28 H8         -1.4300    5.0270   -0.5250 hn        1 MOL      0.195533
     29 H9          0.0700    2.6050   -1.3000 h1        1 MOL      0.076926
     30 H10         1.9270    4.4020   -1.9810 hc        1 MOL      0.102907
     31 H11         0.6770    5.5620   -2.1190 hc        1 MOL      0.102907
     32 H12        -0.2840    4.3930   -3.9420 hc        1 MOL      0.004477
     33 H13         0.6630    2.9610   -3.4890 hc        1 MOL      0.004477
     34 H14         2.6620    3.9160   -4.3080 hc        1 MOL      0.040893
     35 H15         1.9290    5.5900   -4.4190 hc        1 MOL      0.040893
     36 H16         0.3310    4.4520   -6.0190 hx        1 MOL      0.048276
     37 H17         1.3270    3.1030   -6.1680 hx        1 MOL      0.048276
     38 H18         2.1350    5.9420   -6.6810 hn        1 MOL      0.342876
     39 H19         3.1190    4.6260   -6.7530 hn        1 MOL      0.342876
     40 H20         1.9390    4.7690   -7.8700 hn        1 MOL      0.342876
     41 N4          1.6710    2.7300    0.6850 n         1 MOL     -0.547810
     42 C13         2.0250    1.3690    0.2270 c3        1 MOL      0.062539
     43 C14         2.4810    1.1900   -1.2110 c         1 MOL      0.214806
     44 O6          1.6340    1.0770   -2.0740 o         1 MOL     -0.484330
     45 C15         0.8810    0.2820    0.5700 c3        1 MOL     -0.190627
     46 C16         0.7720    0.0290    2.0570 c         1 MOL      0.698507
     47 O7          1.8010    0.1230    2.8460 o         1 MOL     -0.780960
     48 O8         -0.3360   -0.1730    2.5440 o         1 MOL     -0.780960
     49 H21         2.1150    2.9950    1.5460 hn        1 MOL      0.246489
     50 H22         2.8760    0.9750    0.7940 h1        1 MOL      0.025285
     51 H23         1.0760   -0.6800    0.0840 hc        1 MOL      0.088577
     52 H24        -0.0980    0.6060    0.2050 hc        1 MOL      0.088577
     53 N5          3.7890    1.2760   -1.4910 n         1 MOL     -0.010456
     54 C17         4.8620    1.5120   -0.5140 c3        1 MOL     -0.479414
     55 C18         6.1090    2.1790   -1.1830 c         1 MOL      0.483016
     56 O9          6.0470    2.4750   -2.4000 o         1 MOL     -0.561147
     57 H25         4.0040    1.3710   -2.4680 hn        1 MOL      0.233991
     58 H26         5.1180    0.5290   -0.1320 h1        1 MOL      0.236700
     59 H27         4.5600    2.2360    0.2340 h1        1 MOL      0.236700
     60 N6          7.2340    2.3820   -0.4980 n         1 MOL     -0.326978
     61 C19         7.4150    1.9430    0.8880 c3        1 MOL      0.011369
     62 C20         7.5970    0.3820    1.0190 c         1 MOL      0.507950
     63 O10         7.7750   -0.2820    0.0390 o         1 MOL     -0.424006
     64 C21         8.7230    2.5080    1.4350 c3        1 MOL     -0.116749
     65 C22         9.9280    2.0380    0.5540 c         1 MOL      0.645482
     66 O11        10.9240    1.4610    1.1120 o         1 MOL     -0.652245
     67 O12         9.8990    2.2760   -0.7150 o         1 MOL     -0.652245
     68 H28         8.0950    2.7510   -0.8900 hn        1 MOL      0.272021
     69 H29         6.5670    2.2620    1.4800 h1        1 MOL     -0.007739
     70 H30         8.8920    2.0960    2.4290 hc        1 MOL      0.011025
     71 H31         8.7520    3.5950    1.4750 hc        1 MOL      0.011025
     72 N7          7.6340   -0.2310    2.2520 n         1 MOL     -0.367289
     73 C23         8.0390   -1.6440    2.4580 c3        1 MOL     -0.256676
     74 C24         7.1690   -2.6940    1.8140 c         1 MOL      0.579757
     75 O13         7.6190   -3.8050    1.7070 o         1 MOL     -0.564686
     76 H32         7.6040    0.3520    3.0750 hn        1 MOL      0.265342
     77 H33         7.9710   -1.8520    3.5280 h1        1 MOL      0.157963
     78 H34         9.0720   -1.6680    2.1040 h1        1 MOL      0.157963
     79 N8          5.9470   -2.4380    1.3250 n         1 MOL     -0.269219
     80 C25         4.9890   -3.3410    0.6050 c3        1 MOL     -0.023849
     81 C26         4.1740   -2.5980   -0.4010 c         1 MOL      0.512444
     82 O14         3.6450   -1.5470    0.0260 o         1 MOL     -0.380172
     83 C27         4.1750   -4.1550    1.6000 c3        1 MOL      0.220717
     84 C28         4.8700   -5.0320    2.6080 c3        1 MOL     -0.411709
     85 O15         3.2330   -5.0740    1.0330 oh        1 MOL     -0.663324
     86 H35         5.6310   -1.4880    1.3890 hn        1 MOL      0.079214
     87 H36         5.6180   -4.0180    0.0220 h1        1 MOL      0.100569
     88 H37         3.6390   -3.3320    2.0860 h1        1 MOL      0.031624
     89 H38         3.4000   -5.9360    1.4310 ho        1 MOL      0.429467
     90 H39         5.6520   -4.5620    3.1910 hc        1 MOL      0.122048
     91 H40         4.1780   -5.4210    3.3480 hc        1 MOL      0.122048
     92 H41         5.2530   -5.9340    2.1400 hc        1 MOL      0.122048
     93 N9          3.9870   -3.1260   -1.5950 n         1 MOL     -0.504082
     94 C29         3.1640   -2.4780   -2.6230 c3        1 MOL     -0.036699
     95 C30         1.8310   -3.2290   -2.6750 c         1 MOL      0.563905
     96 O16         1.3610   -3.7640   -3.6860 o         1 MOL     -0.553990
     97 C31         3.8250   -2.3930   -3.9710 c3        1 MOL      0.067793
     98 C32         4.4670   -3.7050   -4.5410 c3        1 MOL      0.204102
     99 C33         4.8770   -1.2420   -3.8910 c3        1 MOL     -0.161636
    100 C34         5.3050   -3.5070   -5.8260 c3        1 MOL     -0.301996
    101 H42         4.4130   -4.0170   -1.8240 hn        1 MOL      0.305171
    102 H43         2.9000   -1.4710   -2.2660 h1        1 MOL      0.080993
    103 H44         3.0980   -2.0650   -4.7090 hc        1 MOL      0.013525
    104 H45         3.6330   -4.3690   -4.7470 hc        1 MOL     -0.027980
    105 H46         5.0620   -4.1900   -3.7660 hc        1 MOL     -0.027980
    106 H47         5.7110   -1.6000   -3.2910 hc        1 MOL      0.043200
    107 H48         5.2630   -1.0120   -4.8950 hc        1 MOL      0.043200
    108 H49         4.4670   -0.2940   -3.5360 hc        1 MOL      0.043200
    109 H50         5.5450   -4.5060   -6.2050 hc        1 MOL      0.071700
    110 H51         4.6350   -2.9940   -6.5110 hc        1 MOL      0.071700
    111 H52         6.1840   -2.8850   -5.6180 hc        1 MOL      0.071700
    112 N10         1.1540   -3.2950   -1.5090 n         1 MOL     -0.374575
    113 C35        -0.1550   -3.9400   -1.3440 c3        1 MOL     -0.176868
    114 C36        -1.3010   -2.9980   -1.7880 c         1 MOL      0.641035
    115 O17        -1.3730   -1.8460   -1.3830 o         1 MOL     -0.479245
    116 C37        -0.3020   -4.5460    0.0700 c3        1 MOL      0.189514
    117 C38        -0.0850   -3.7060    1.3200 c3        1 MOL     -0.373208
    118 O18         0.4070   -5.7720    0.1070 oh        1 MOL     -0.609582
    119 H53         1.6250   -2.9510   -0.6910 hn        1 MOL      0.355538
    120 H54        -0.2830   -4.8080   -1.9880 h1        1 MOL      0.130623
    121 H55        -1.3540   -4.8060    0.2060 h1        1 MOL      0.099194
    122 H56         1.2840   -5.5630    0.4630 ho        1 MOL      0.384037
    123 H57        -0.5430   -2.7320    1.1160 hc        1 MOL      0.127336
    124 H58        -0.6080   -4.1230    2.1690 hc        1 MOL      0.127336
    125 H59         0.9940   -3.5310    1.3730 hc        1 MOL      0.127336
    126 N11        -2.3500   -3.6270   -2.3870 n         1 MOL     -0.534938
    127 C39        -3.7420   -3.1370   -2.4000 c3        1 MOL      0.011114
    128 C40        -4.2430   -3.0320   -0.8990 c         1 MOL      0.445563
    129 O19        -3.7030   -3.5930    0.0770 o         1 MOL     -0.539321
    130 C41        -4.7340   -4.0520   -3.2350 c3        1 MOL      0.213232
    131 C42        -4.8680   -5.5130   -2.7370 c3        1 MOL     -0.131160
    132 O20        -4.1970   -4.1530   -4.5320 oh        1 MOL     -0.620480
    133 H60        -2.1870   -4.5770   -2.6840 hn        1 MOL      0.278021
    134 H61        -3.8590   -2.1120   -2.7270 h1        1 MOL      0.100945
    135 H62        -5.7250   -3.6040   -3.2660 h1        1 MOL      0.117574
    136 H63        -3.3050   -4.5050   -4.5180 ho        1 MOL      0.411568
    137 H64        -5.2740   -5.4560   -1.7260 hc        1 MOL      0.036754
    138 H65        -5.6490   -6.0400   -3.2950 hc        1 MOL      0.036754
    139 H66        -3.9950   -6.1590   -2.7530 hc        1 MOL      0.036754
    140 N12        -5.3700   -2.3270   -0.7570 n         1 MOL     -0.271131
    141 C43        -6.2280   -2.3350    0.4060 c3        1 MOL      0.090416
    142 C44        -5.9080   -1.2760    1.4250 c         1 MOL      0.644314
    143 O21        -6.5170   -1.2570    2.4380 o         1 MOL     -0.631119
    144 C45        -7.7140   -2.2290    0.0560 c3        1 MOL     -0.061239
    145 C46        -8.2130   -3.4300   -0.7400 c3        1 MOL      0.198886
    146 C47        -9.7590   -3.3930   -1.0600 c3        1 MOL      0.206656
    147 C48       -10.4570   -4.7490   -1.2160 c3        1 MOL     -0.168407
    148 N13       -10.0570   -5.8150   -0.2130 n4        1 MOL     -0.079084
    149 H67        -5.6050   -1.8420   -1.6050 hn        1 MOL      0.220920
    150 H68        -6.1190   -3.2430    1.0050 h1        1 MOL      0.053676
    151 H69        -7.9070   -1.3360   -0.5370 hc        1 MOL      0.027607
    152 H70        -8.2710   -2.1550    0.9960 hc        1 MOL      0.027607
    153 H71        -8.1080   -4.2970   -0.0970 hc        1 MOL     -0.124914
    154 H72        -7.6220   -3.4830   -1.6550 hc        1 MOL     -0.124914
    155 H73        -9.9690   -2.8060   -1.9590 hc        1 MOL     -0.008424
    156 H74       -10.1960   -2.7900   -0.2680 hc        1 MOL     -0.008424
    157 H75       -10.2480   -5.1490   -2.2040 hx        1 MOL      0.103380
    158 H76       -11.5120   -4.5920   -0.9730 hx        1 MOL      0.103380
    159 H77        -9.3630   -6.4740   -0.5210 hn        1 MOL      0.213087
    160 H78        -9.6990   -5.3350    0.6060 hn        1 MOL      0.213087
    161 H79       -10.7680   -6.4130    0.1860 hn        1 MOL      0.213087
    162 N14        -5.0170   -0.2950    1.1420 n         1 MOL     -0.566266
    163 C49        -4.7710    0.7440    2.0890 c3        1 MOL      0.049688
    164 C50        -5.9100    1.8240    2.0220 c         1 MOL      0.305905
    165 O22        -5.9940    2.5360    0.9930 o         1 MOL     -0.471557
    166 C51        -3.3760    1.3280    1.7560 c3        1 MOL      0.468701
    167 C52        -2.7370    2.4330    2.6820 c3        1 MOL     -0.918804
    168 C53        -2.8050    2.2280    4.1840 c         1 MOL      0.991227
    169 O23        -3.9010    2.0820    4.7830 o         1 MOL     -0.800797
    170 O24        -1.6850    2.2620    4.8190 o         1 MOL     -0.800797
    171 H80        -4.3070   -0.2890    0.4150 hn        1 MOL      0.244040
    172 H81        -4.7840    0.2220    3.0440 h1        1 MOL      0.099440
    173 H82        -3.3000    1.5480    0.6910 hc        1 MOL     -0.007676
    174 H83        -2.7320    0.4710    1.9520 hc        1 MOL     -0.007676
    175 H84        -3.3780    3.3120    2.5880 hc        1 MOL      0.228521
    176 H85        -1.7580    2.6630    2.2660 hc        1 MOL      0.228521
    177 N15        -6.7150    1.8190    3.0780 n         1 MOL     -0.040532
    178 C54        -7.8690    2.7060    3.2280 c3        1 MOL     -0.366792
    179 H86        -8.4700    2.3800    4.0770 h1        1 MOL      0.127662
    180 H87        -7.5250    3.7260    3.3970 h1        1 MOL      0.127662
    181 H88        -8.4750    2.6710    2.3220 h1        1 MOL      0.127662
    182 H89        -6.5690    1.0710    3.7390 hn        1 MOL      0.254064
    183 Ca1         0.5230    0.8100    4.9770 Ca        1 MOL      1.723756
    184 O25         1.4320   -0.4850    7.3290 oh        1 MOL     -0.852059
    185 O26         0.4690   -1.8470    5.0020 oh        1 MOL     -0.852059
    186 H90         1.0350   -0.2590    8.1710 ho        1 MOL      0.422333
    187 H91        -0.0960   -2.3740    4.4240 ho        1 MOL      0.422333
    188 H92         1.4560   -1.4410    7.3240 ho        1 MOL      0.422333
    189 H93         1.3630   -2.0920    4.7420 ho        1 MOL      0.422333
    190 O27        -1.4690   -0.0040    6.6060 oh        1 MOL     -0.852059
    191 H94        -1.5950   -0.9480    6.6580 ho        1 MOL      0.422333
    192 H95        -2.1100    0.3610    7.2170 ho        1 MOL      0.422333
    193 O28         0.0610    2.8510    6.7330 oh        1 MOL     -0.852059
    194 H96        -0.1550    3.6210    7.2580 ho        1 MOL      0.422333
    195 H97        -0.6560    2.7820    6.1010 ho        1 MOL      0.422333
@<TRIPOS>BOND
     1    1    2 1   
     2    1    4 1   
     3    1    5 1   
     4    1    6 1   
     5    2    3 2   
     6    2    7 1   
     7    7    8 1   
     8    7   15 1   
     9    8    9 1   
    10    8   11 1   
    11    8   16 1   
    12    9   10 2   
    13    9   19 1   
    14   11   12 1   
    15   11   17 1   
    16   11   18 1   
    17   12   13 1   
    18   12   14 1   
    19   19   20 1   
    20   19   28 1   
    21   20   21 1   
    22   20   23 1   
    23   20   29 1   
    24   21   22 2   
    25   21   41 1   
    26   23   24 1   
    27   23   30 1   
    28   23   31 1   
    29   24   25 1   
    30   24   32 1   
    31   24   33 1   
    32   25   26 1   
    33   25   34 1   
    34   25   35 1   
    35   26   27 1   
    36   26   36 1   
    37   26   37 1   
    38   27   38 1   
    39   27   39 1   
    40   27   40 1   
    41   41   42 1   
    42   41   49 1   
    43   42   43 1   
    44   42   45 1   
    45   42   50 1   
    46   43   44 2   
    47   43   53 1   
    48   45   46 1   
    49   45   51 1   
    50   45   52 1   
    51   46   47 1   
    52   46   48 1   
    53   53   54 1   
    54   53   57 1   
    55   54   55 1   
    56   54   58 1   
    57   54   59 1   
    58   55   56 2   
    59   55   60 1   
    60   60   61 1   
    61   60   68 1   
    62   61   62 1   
    63   61   64 1   
    64   61   69 1   
    65   62   63 2   
    66   62   72 1   
    67   64   65 1   
    68   64   70 1   
    69   64   71 1   
    70   65   66 1   
    71   65   67 1   
    72   72   73 1   
    73   72   76 1   
    74   73   74 1   
    75   73   77 1   
    76   73   78 1   
    77   74   75 2   
    78   74   79 1   
    79   79   80 1   
    80   79   86 1   
    81   80   81 1   
    82   80   83 1   
    83   80   87 1   
    84   81   82 2   
    85   81   93 1   
    86   83   84 1   
    87   83   85 1   
    88   83   88 1   
    89   84   90 1   
    90   84   91 1   
    91   84   92 1   
    92   85   89 1   
    93   93   94 1   
    94   93  101 1   
    95   94   95 1   
    96   94   97 1   
    97   94  102 1   
    98   95   96 2   
    99   95  112 1   
   100   97   98 1   
   101   97   99 1   
   102   97  103 1   
   103   98  100 1   
   104   98  104 1   
   105   98  105 1   
   106   99  106 1   
   107   99  107 1   
   108   99  108 1   
   109  100  109 1   
   110  100  110 1   
   111  100  111 1   
   112  112  113 1   
   113  112  119 1   
   114  113  114 1   
   115  113  116 1   
   116  113  120 1   
   117  114  115 2   
   118  114  126 1   
   119  116  117 1   
   120  116  118 1   
   121  116  121 1   
   122  117  123 1   
   123  117  124 1   
   124  117  125 1   
   125  118  122 1   
   126  126  127 1   
   127  126  133 1   
   128  127  128 1   
   129  127  130 1   
   130  127  134 1   
   131  128  129 2   
   132  128  140 1   
   133  130  131 1   
   134  130  132 1   
   135  130  135 1   
   136  131  137 1   
   137  131  138 1   
   138  131  139 1   
   139  132  136 1   
   140  140  141 1   
   141  140  149 1   
   142  141  142 1   
   143  141  144 1   
   144  141  150 1   
   145  142  143 2   
   146  142  162 1   
   147  144  145 1   
   148  144  151 1   
   149  144  152 1   
   150  145  146 1   
   151  145  153 1   
   152  145  154 1   
   153  146  147 1   
   154  146  155 1   
   155  146  156 1   
   156  147  148 1   
   157  147  157 1   
   158  147  158 1   
   159  148  159 1   
   160  148  160 1   
   161  148  161 1   
   162  162  163 1   
   163  162  171 1   
   164  163  164 1   
   165  163  166 1   
   166  163  172 1   
   167  164  165 2   
   168  164  177 1   
   169  166  167 1   
   170  166  173 1   
   171  166  174 1   
   172  167  168 1   
   173  167  175 1   
   174  167  176 1   
   175  168  169 1   
   176  168  170 1   
   177  177  178 1   
   178  177  182 1   
   179  178  179 1   
   180  178  180 1   
   181  178  181 1   
   182  184  186 1   
   183  184  188 1   
   184  185  187 1   
   185  185  189 1   
   186  190  191 1   
   187  190  192 1   
   188  193  194 1   
   189  193  195 1   
@<TRIPOS>SUBSTRUCTURE
     1 MOL         1 TEMP              0 ****  ****    0 ROOT
