@<TRIPOS>MOLECULE
MOL
  192   187     1     0     0
SMALL
resp


@<TRIPOS>ATOM
      1 C1          9.5350    1.4900    1.2060 c3        1 MOL     -0.442127
      2 C2          8.3020    0.9110    0.4370 c         1 MOL      0.700899
      3 O1          7.2450    0.8160    0.9990 o         1 MOL     -0.650716
      4 H1         10.1560    0.6700    1.5670 hc        1 MOL      0.113787
      5 H2         10.1200    2.1190    0.5350 hc        1 MOL      0.113787
      6 H3          9.1900    2.0840    2.0530 hc        1 MOL      0.113787
      7 N1          8.4600    0.2980   -0.7610 n         1 MOL     -0.503294
      8 C3          7.4470   -0.1760   -1.7210 c3        1 MOL      0.155672
      9 C4          7.1240   -1.6230   -1.3340 c         1 MOL      0.442904
     10 O2          7.3560   -2.5670   -2.0740 o         1 MOL     -0.453425
     11 C5          7.9230    0.0160   -3.1650 c3        1 MOL     -0.276757
     12 C6          9.4080   -0.5520   -3.3640 c         1 MOL      0.713379
     13 O3          9.6720   -1.6270   -3.9470 o         1 MOL     -0.635729
     14 O4         10.3350    0.1300   -2.8610 o         1 MOL     -0.635729
     15 H4          9.3950    0.2730   -1.1350 hn        1 MOL      0.202008
     16 H5          6.5770    0.4640   -1.5980 h1        1 MOL      0.060130
     17 H6          7.8890    1.0390   -3.5440 hc        1 MOL      0.079024
     18 H7          7.2040   -0.5370   -3.7670 hc        1 MOL      0.079024
     19 N2          6.6600   -1.8830   -0.1320 n         1 MOL     -0.300359
     20 C7          6.3620   -3.2040    0.4020 c3        1 MOL      0.017906
     21 C8          4.9210   -3.6150    0.2480 c         1 MOL      0.590681
     22 O5          4.7050   -4.7530   -0.0260 o         1 MOL     -0.578468
     23 C9          6.9200   -3.4650    1.8480 c3        1 MOL      0.139069
     24 C10         8.4090   -3.2080    1.8190 c3        1 MOL     -0.205212
     25 C11         9.0710   -3.6280    3.1260 c3        1 MOL      0.116285
     26 C12        10.4830   -3.1180    3.2610 c3        1 MOL     -0.021000
     27 N3         11.0250   -3.1250    4.6780 n4        1 MOL     -0.491657
     28 H8          6.6080   -1.1070    0.5080 hn        1 MOL      0.284987
     29 H9          6.9010   -3.8840   -0.2520 h1        1 MOL      0.069204
     30 H10         6.6940   -4.4790    2.1750 hc        1 MOL     -0.021908
     31 H11         6.3970   -2.8260    2.5490 hc        1 MOL     -0.021908
     32 H12         8.5750   -2.1370    1.7220 hc        1 MOL      0.072577
     33 H13         8.8890   -3.8000    1.0380 hc        1 MOL      0.072577
     34 H14         9.0650   -4.7110    3.2280 hc        1 MOL     -0.000860
     35 H15         8.4380   -3.2800    3.9350 hc        1 MOL     -0.000860
     36 H16        10.3840   -2.1190    2.8360 hx        1 MOL      0.093102
     37 H17        11.1620   -3.7430    2.6790 hx        1 MOL      0.093102
     38 H18        10.9680   -4.1130    4.8770 hn        1 MOL      0.333065
     39 H19        11.9670   -2.7570    4.6450 hn        1 MOL      0.333065
     40 H20        10.3790   -2.5160    5.1420 hn        1 MOL      0.333065
     41 N4          3.8610   -2.8360    0.4440 n         1 MOL     -0.460593
     42 C13         3.8040   -1.5220    1.1090 c3        1 MOL      0.080530
     43 C14         3.9040   -0.3320    0.1180 c         1 MOL     -0.051126
     44 O6          3.9390   -0.5160   -1.1100 o         1 MOL     -0.320536
     45 C15         2.7080   -1.5050    2.1630 c3        1 MOL     -0.269732
     46 C16         1.3790   -1.8180    1.5710 c         1 MOL      0.710286
     47 O7          1.0380   -1.2260    0.4990 o         1 MOL     -0.688103
     48 O8          0.6940   -2.7460    2.0950 o         1 MOL     -0.688103
     49 H21         3.0010   -3.2330    0.0880 hn        1 MOL      0.385425
     50 H22         4.7720   -1.3880    1.5910 h1        1 MOL      0.086989
     51 H23         2.5160   -0.5700    2.6860 hc        1 MOL      0.056923
     52 H24         2.9080   -2.2230    2.9690 hc        1 MOL      0.056923
     53 N5          3.9690    0.9060    0.6310 n         1 MOL     -0.245979
     54 C17         4.0660    2.0710   -0.1870 c3        1 MOL     -0.197625
     55 C18         2.7560    2.5420   -0.8450 c         1 MOL      0.392374
     56 O9          1.6790    2.0040   -0.6620 o         1 MOL     -0.178086
     57 H25         4.2380    0.9400    1.6050 hn        1 MOL      0.316297
     58 H26         4.8060    1.9720   -0.9820 h1        1 MOL      0.138548
     59 H27         4.4550    2.8190    0.5070 h1        1 MOL      0.138548
     60 N6          2.8980    3.6470   -1.6270 n         1 MOL     -0.529271
     61 C19         1.8200    4.3000   -2.3680 c3        1 MOL      0.321092
     62 C20         2.1170    5.8020   -2.6150 c         1 MOL      0.395001
     63 O10         3.2720    6.1750   -2.7140 o         1 MOL     -0.516055
     64 C21         1.4570    3.5590   -3.6970 c3        1 MOL     -0.130013
     65 C22         1.1090    2.1070   -3.4770 c         1 MOL      0.706045
     66 O11         0.0530    1.7460   -2.9630 o         1 MOL     -0.697802
     67 O12         1.8960    1.1850   -3.7550 o         1 MOL     -0.697802
     68 H28         3.8300    3.9830   -1.8010 hn        1 MOL      0.297383
     69 H29         0.9250    4.2930   -1.7300 h1        1 MOL      0.021824
     70 H30         2.2460    3.7130   -4.4330 hc        1 MOL      0.017428
     71 H31         0.5360    4.0360   -4.0330 hc        1 MOL      0.017428
     72 N7          1.1660    6.7010   -2.7940 n         1 MOL     -0.385414
     73 C23        -0.2750    6.4820   -2.7720 c3        1 MOL     -0.103496
     74 C24        -0.6930    6.0080   -1.4010 c         1 MOL      0.626097
     75 O13        -0.1240    6.3890   -0.3830 o         1 MOL     -0.523280
     76 H32         1.5070    7.6410   -2.8980 hn        1 MOL      0.309875
     77 H33        -0.6800    5.9430   -3.6190 h1        1 MOL      0.086356
     78 H34        -0.8160    7.4120   -2.9260 h1        1 MOL      0.086356
     79 N8         -1.8610    5.3490   -1.3150 n         1 MOL     -0.552622
     80 C25        -2.5030    4.8020   -0.1460 c3        1 MOL      0.005066
     81 C26        -1.7170    3.6820    0.5010 c         1 MOL      1.079727
     82 O14        -1.1530    2.7660   -0.1000 o         1 MOL     -0.999331
     83 C27        -3.9490    4.3380   -0.4810 c3        1 MOL      0.253045
     84 C28        -4.5640    3.5000    0.5960 c3        1 MOL     -0.233258
     85 O15        -4.0220    3.4270   -1.5670 oh        1 MOL     -0.566484
     86 H35        -2.3790    5.3730   -2.1730 hn        1 MOL      0.267070
     87 H36        -2.5710    5.5710    0.6220 h1        1 MOL      0.025043
     88 H37        -4.4970    5.2530   -0.6980 h1        1 MOL      0.033641
     89 H38        -3.8360    3.8430   -2.4140 ho        1 MOL      0.388681
     90 H39        -4.3420    4.0560    1.5070 hc        1 MOL      0.047973
     91 H40        -5.6190    3.3040    0.4520 hc        1 MOL      0.047973
     92 H41        -4.0670    2.5360    0.5850 hc        1 MOL      0.047973
     93 N9         -1.6440    3.7220    1.8110 n         1 MOL     -0.661654
     94 C29        -1.0210    2.6400    2.6560 c3        1 MOL      0.030947
     95 C30        -1.5840    1.2600    2.5160 c         1 MOL      0.284181
     96 O16        -1.5180    0.6010    1.4910 o         1 MOL     -0.432225
     97 C31         0.5120    2.6760    2.6980 c3        1 MOL      0.471330
     98 C32         1.2450    3.9960    2.9000 c3        1 MOL     -0.219489
     99 C33         1.1080    1.6920    3.7830 c3        1 MOL     -0.324375
    100 C34         0.8000    4.8160    4.0740 c3        1 MOL     -0.295110
    101 H42        -2.1590    4.4600    2.2720 hn        1 MOL      0.322866
    102 H43        -1.3470    2.8720    3.6630 h1        1 MOL      0.040041
    103 H44         0.8740    2.2770    1.7550 hc        1 MOL     -0.170608
    104 H45         1.2340    4.5060    1.9410 hc        1 MOL      0.086032
    105 H46         2.2640    3.7400    3.1820 hc        1 MOL      0.086032
    106 H47         0.9740    2.0570    4.7970 hc        1 MOL      0.076236
    107 H48         0.6770    0.7000    3.8060 hc        1 MOL      0.076236
    108 H49         2.1430    1.5230    3.4940 hc        1 MOL      0.076236
    109 H50         1.3780    5.7490    4.0430 hc        1 MOL      0.079657
    110 H51        -0.2650    5.0360    4.0820 hc        1 MOL      0.079657
    111 H52         1.1100    4.3830    5.0210 hc        1 MOL      0.079657
    112 N10        -2.2440    0.8140    3.5310 n         1 MOL     -0.098828
    113 C35        -2.7330   -0.5720    3.6350 c3        1 MOL     -0.139770
    114 C36        -4.1580   -0.8790    3.0520 c         1 MOL      0.528052
    115 O17        -4.3820   -1.9730    2.4930 o         1 MOL     -0.530624
    116 C37        -2.5650   -1.0840    5.0330 c3        1 MOL      0.367064
    117 C38        -3.4960   -0.3020    5.9340 c3        1 MOL     -0.261780
    118 O18        -1.3440   -0.7840    5.5630 oh        1 MOL     -0.606636
    119 H53        -2.3130    1.4220    4.3340 hn        1 MOL      0.185237
    120 H54        -2.0720   -1.1630    2.9980 h1        1 MOL      0.085568
    121 H55        -2.7790   -2.1510    5.1470 h1        1 MOL      0.022514
    122 H56        -0.7890   -1.5190    5.2770 ho        1 MOL      0.398079
    123 H57        -4.5490   -0.4050    5.6730 hc        1 MOL      0.063437
    124 H58        -3.4310   -0.6830    6.9610 hc        1 MOL      0.063437
    125 H59        -3.1750    0.7200    6.1030 hc        1 MOL      0.063437
    126 N11        -5.0270    0.1060    3.1280 n         1 MOL     -0.269010
    127 C39        -6.3990    0.0010    2.4850 c3        1 MOL     -0.133278
    128 C40        -6.3030   -0.3610    0.9570 c         1 MOL      0.415319
    129 O19        -5.6130    0.2860    0.1360 o         1 MOL     -0.414037
    130 C41        -7.1450    1.4120    2.6230 c3        1 MOL      0.416606
    131 C42        -8.6010    1.3670    2.2320 c3        1 MOL     -0.340211
    132 O20        -7.2340    1.6860    3.9650 oh        1 MOL     -0.583080
    133 H60        -4.6770    0.9940    3.4690 hn        1 MOL      0.159606
    134 H61        -7.0350   -0.7570    2.9600 h1        1 MOL      0.113139
    135 H62        -6.6080    2.2240    2.1390 h1        1 MOL      0.001429
    136 H63        -6.5460    2.3590    4.0200 ho        1 MOL      0.363426
    137 H64        -9.2260    0.5850    2.6550 hc        1 MOL      0.093276
    138 H65        -9.0390    2.3400    2.4830 hc        1 MOL      0.093276
    139 H66        -8.5830    1.2670    1.1460 hc        1 MOL      0.093276
    140 N12        -6.9370   -1.4610    0.6110 n         1 MOL     -0.340849
    141 C43        -6.9330   -2.2420   -0.6380 c3        1 MOL      0.118579
    142 C44        -5.5120   -2.2480   -1.3190 c         1 MOL      0.570077
    143 O21        -5.2960   -1.5080   -2.2250 o         1 MOL     -0.555173
    144 C45        -7.9030   -1.6120   -1.6660 c3        1 MOL     -0.242633
    145 C46        -9.3130   -1.7130   -1.1210 c3        1 MOL     -0.062848
    146 C47       -10.4500   -1.0480   -1.9110 c3        1 MOL     -0.033867
    147 C48       -11.7920   -1.0740   -1.1880 c3        1 MOL     -0.011100
    148 N13       -12.4660   -2.3730   -1.1960 n4        1 MOL     -0.154918
    149 H67        -7.3560   -1.9970    1.3680 hn        1 MOL      0.220867
    150 H68        -7.2550   -3.2820   -0.5360 h1        1 MOL      0.035646
    151 H69        -7.9350   -2.0940   -2.6320 hc        1 MOL      0.110565
    152 H70        -7.6130   -0.5710   -1.8330 hc        1 MOL      0.110565
    153 H71        -9.2780   -1.1590   -0.1810 hc        1 MOL      0.023552
    154 H72        -9.5070   -2.7730   -0.9430 hc        1 MOL      0.023552
    155 H73       -10.5820   -1.5420   -2.8770 hc        1 MOL      0.063064
    156 H74       -10.2350   -0.0260   -2.2380 hc        1 MOL      0.063064
    157 H75       -12.4110   -0.3200   -1.6760 hx        1 MOL      0.065473
    158 H76       -11.4930   -0.7900   -0.1700 hx        1 MOL      0.065473
    159 H77       -12.3210   -2.7050   -2.1340 hn        1 MOL      0.215037
    160 H78       -11.9810   -3.0590   -0.6490 hn        1 MOL      0.215037
    161 H79       -13.4400   -2.3340   -0.9440 hn        1 MOL      0.215037
    162 N14        -4.5890   -3.0900   -0.8200 n         1 MOL     -0.486358
    163 C49        -3.3030   -3.2960   -1.4730 c3        1 MOL      0.267566
    164 C50        -2.1040   -3.0610   -0.5650 c         1 MOL      0.334563
    165 O22        -1.5130   -2.0240   -0.4800 o         1 MOL     -0.533938
    166 C51        -3.4370   -4.6360   -2.1690 c3        1 MOL     -0.171606
    167 C52        -4.2760   -4.5400   -3.4470 c3        1 MOL     -0.239424
    168 C53        -4.2470   -5.9620   -4.0510 c         1 MOL      0.728279
    169 O23        -5.2590   -6.6130   -3.9190 o         1 MOL     -0.658453
    170 O24        -3.2020   -6.2850   -4.6490 o         1 MOL     -0.658453
    171 H80        -4.7910   -3.5410    0.0580 hn        1 MOL      0.285004
    172 H81        -3.1430   -2.5360   -2.2400 h1        1 MOL      0.122815
    173 H82        -3.7510   -5.4760   -1.5530 hc        1 MOL      0.078411
    174 H83        -2.4300   -4.9060   -2.4920 hc        1 MOL      0.078411
    175 H84        -3.8640   -3.8540   -4.1890 hc        1 MOL      0.045371
    176 H85        -5.2900   -4.2420   -3.1780 hc        1 MOL      0.045371
    177 N15        -1.7040   -4.0040    0.2630 n         1 MOL     -0.248584
    178 C54        -2.1080   -5.3420    0.6200 c3        1 MOL     -0.098468
    179 H86        -1.6710   -5.6080    1.5820 h1        1 MOL      0.054573
    180 H87        -3.1950   -5.3860    0.6910 h1        1 MOL      0.054573
    181 H88        -1.7640   -6.0420   -0.1410 h1        1 MOL      0.054573
    182 H89        -1.0310   -3.6690    0.9340 hn        1 MOL      0.301031
    183 Ca1        -0.3670    0.2910   -0.9810 Ca        1 MOL      1.716965
    184 O25        -2.8880    0.6090   -1.4510 oh        1 MOL     -0.829135
    185 H90        -3.7220    0.2300   -1.7260 ho        1 MOL      0.395688
    186 H91        -3.1080    1.4680   -1.0950 ho        1 MOL      0.395688
    187 O26        -1.1030   -0.6950   -3.8410 oh        1 MOL     -0.829135
    188 H92        -0.6510    0.0790   -4.1860 ho        1 MOL      0.395688
    189 H93        -1.9160   -0.7430   -4.3320 ho        1 MOL      0.395688
    190 O27         1.5720   -0.9840   -2.2430 oh        1 MOL     -0.829135
    191 H94         2.4830   -1.1350   -2.0030 ho        1 MOL      0.395688
    192 H95         1.6010   -0.1990   -2.7920 ho        1 MOL      0.395688
@<TRIPOS>BOND
     1    1    2 1   
     2    1    4 1   
     3    1    5 1   
     4    1    6 1   
     5    2    3 2   
     6    2    7 1   
     7    7    8 1   
     8    7   15 1   
     9    8    9 1   
    10    8   11 1   
    11    8   16 1   
    12    9   10 2   
    13    9   19 1   
    14   11   12 1   
    15   11   17 1   
    16   11   18 1   
    17   12   13 1   
    18   12   14 1   
    19   19   20 1   
    20   19   28 1   
    21   20   21 1   
    22   20   23 1   
    23   20   29 1   
    24   21   22 2   
    25   21   41 1   
    26   23   24 1   
    27   23   30 1   
    28   23   31 1   
    29   24   25 1   
    30   24   32 1   
    31   24   33 1   
    32   25   26 1   
    33   25   34 1   
    34   25   35 1   
    35   26   27 1   
    36   26   36 1   
    37   26   37 1   
    38   27   38 1   
    39   27   39 1   
    40   27   40 1   
    41   41   42 1   
    42   41   49 1   
    43   42   43 1   
    44   42   45 1   
    45   42   50 1   
    46   43   44 2   
    47   43   53 1   
    48   45   46 1   
    49   45   51 1   
    50   45   52 1   
    51   46   47 1   
    52   46   48 1   
    53   53   54 1   
    54   53   57 1   
    55   54   55 1   
    56   54   58 1   
    57   54   59 1   
    58   55   56 2   
    59   55   60 1   
    60   60   61 1   
    61   60   68 1   
    62   61   62 1   
    63   61   64 1   
    64   61   69 1   
    65   62   63 2   
    66   62   72 1   
    67   64   65 1   
    68   64   70 1   
    69   64   71 1   
    70   65   66 1   
    71   65   67 1   
    72   72   73 1   
    73   72   76 1   
    74   73   74 1   
    75   73   77 1   
    76   73   78 1   
    77   74   75 2   
    78   74   79 1   
    79   79   80 1   
    80   79   86 1   
    81   80   81 1   
    82   80   83 1   
    83   80   87 1   
    84   81   82 2   
    85   81   93 1   
    86   83   84 1   
    87   83   85 1   
    88   83   88 1   
    89   84   90 1   
    90   84   91 1   
    91   84   92 1   
    92   85   89 1   
    93   93   94 1   
    94   93  101 1   
    95   94   95 1   
    96   94   97 1   
    97   94  102 1   
    98   95   96 2   
    99   95  112 1   
   100   97   98 1   
   101   97   99 1   
   102   97  103 1   
   103   98  100 1   
   104   98  104 1   
   105   98  105 1   
   106   99  106 1   
   107   99  107 1   
   108   99  108 1   
   109  100  109 1   
   110  100  110 1   
   111  100  111 1   
   112  112  113 1   
   113  112  119 1   
   114  113  114 1   
   115  113  116 1   
   116  113  120 1   
   117  114  115 2   
   118  114  126 1   
   119  116  117 1   
   120  116  118 1   
   121  116  121 1   
   122  117  123 1   
   123  117  124 1   
   124  117  125 1   
   125  118  122 1   
   126  126  127 1   
   127  126  133 1   
   128  127  128 1   
   129  127  130 1   
   130  127  134 1   
   131  128  129 2   
   132  128  140 1   
   133  130  131 1   
   134  130  132 1   
   135  130  135 1   
   136  131  137 1   
   137  131  138 1   
   138  131  139 1   
   139  132  136 1   
   140  140  141 1   
   141  140  149 1   
   142  141  142 1   
   143  141  144 1   
   144  141  150 1   
   145  142  143 2   
   146  142  162 1   
   147  144  145 1   
   148  144  151 1   
   149  144  152 1   
   150  145  146 1   
   151  145  153 1   
   152  145  154 1   
   153  146  147 1   
   154  146  155 1   
   155  146  156 1   
   156  147  148 1   
   157  147  157 1   
   158  147  158 1   
   159  148  159 1   
   160  148  160 1   
   161  148  161 1   
   162  162  163 1   
   163  162  171 1   
   164  163  164 1   
   165  163  166 1   
   166  163  172 1   
   167  164  165 2   
   168  164  177 1   
   169  166  167 1   
   170  166  173 1   
   171  166  174 1   
   172  167  168 1   
   173  167  175 1   
   174  167  176 1   
   175  168  169 1   
   176  168  170 1   
   177  177  178 1   
   178  177  182 1   
   179  178  179 1   
   180  178  180 1   
   181  178  181 1   
   182  184  185 1   
   183  184  186 1   
   184  187  188 1   
   185  187  189 1   
   186  190  191 1   
   187  190  192 1   
@<TRIPOS>SUBSTRUCTURE
     1 MOL         1 TEMP              0 ****  ****    0 ROOT
