@<TRIPOS>MOLECULE
MOL
  178   175     1     0     0
SMALL
resp


@<TRIPOS>ATOM
      1 C1          9.9620   -7.1930    1.0900 c3        1 MOL     -0.340745
      2 C2          9.1770   -6.3540    0.0410 c         1 MOL      0.795351
      3 O1          8.2780   -6.8670   -0.5260 o         1 MOL     -0.600996
      4 H1          9.5050   -7.0670    2.0710 hc        1 MOL      0.073384
      5 H2          9.9340   -8.2450    0.8090 hc        1 MOL      0.073384
      6 H3         10.9970   -6.8530    1.1260 hc        1 MOL      0.073384
      7 N1          9.4640   -5.1320   -0.2300 n         1 MOL     -0.677102
      8 C3         10.4350   -4.2600    0.4180 c3        1 MOL      0.272416
      9 C4         10.9950   -3.2420   -0.5460 c         1 MOL      0.535612
     10 O2         10.6750   -3.2590   -1.7490 o         1 MOL     -0.485829
     11 C5          9.7140   -3.5360    1.5820 c3        1 MOL     -0.237937
     12 C6          8.6630   -2.5020    1.0500 c         1 MOL      0.786641
     13 O3          9.0220   -1.3020    0.8030 o         1 MOL     -0.750928
     14 O4          7.4300   -2.7570    0.9680 o         1 MOL     -0.750928
     15 H4          8.9600   -4.7150   -1.0030 hn        1 MOL      0.378348
     16 H5         11.3410   -4.7450    0.7680 h1        1 MOL      0.002411
     17 H6         10.4700   -2.9280    2.0840 hc        1 MOL      0.023680
     18 H7          9.2980   -4.2530    2.2920 hc        1 MOL      0.023680
     19 N2         11.9330   -2.4120   -0.1160 n         1 MOL     -0.671876
     20 C7         12.5240   -1.3490   -0.9240 c3        1 MOL      0.318160
     21 C8         11.5940   -0.4750   -1.8840 c         1 MOL      0.526674
     22 O5         12.1430   -0.0380   -2.9230 o         1 MOL     -0.554650
     23 C9         13.7010   -1.9710   -1.6860 c3        1 MOL     -0.342498
     24 H8         12.2350   -2.4280    0.8540 hn        1 MOL      0.349309
     25 H9         12.9850   -0.5410   -0.3550 h1        1 MOL     -0.009274
     26 H10        14.4300   -2.3930   -0.9960 hc        1 MOL      0.085505
     27 H11        13.2390   -2.7120   -2.3340 hc        1 MOL      0.085505
     28 H12        14.3050   -1.3060   -2.3110 hc        1 MOL      0.085505
     29 N3         10.3550   -0.1440   -1.4770 n         1 MOL     -0.562448
     30 C10         9.4620    0.7900   -2.2180 c3        1 MOL      0.489787
     31 C11         8.5680    1.6620   -1.2410 c         1 MOL      0.324335
     32 O6          8.4010    1.3520   -0.0270 o         1 MOL     -0.575620
     33 C12         8.5270    0.1810   -3.2440 c3        1 MOL     -0.326255
     34 C13         7.7050   -0.9870   -2.6420 c         1 MOL      0.813043
     35 O7          7.1990   -0.8770   -1.5440 o         1 MOL     -0.712580
     36 O8          7.3400   -1.9930   -3.3240 o         1 MOL     -0.712580
     37 H13         9.8920   -0.6340   -0.7330 hn        1 MOL      0.280887
     38 H14        10.0580    1.5310   -2.7450 h1        1 MOL     -0.069669
     39 H15         9.1000   -0.0850   -4.1180 hc        1 MOL      0.049198
     40 H16         7.7570    0.8800   -3.5870 hc        1 MOL      0.049198
     41 N4          7.9680    2.7190   -1.6990 n         1 MOL     -0.263615
     42 C14         7.2490    3.6960   -0.8600 c3        1 MOL     -0.341965
     43 C15         5.9980    3.1710   -0.1960 c         1 MOL      0.767601
     44 O9          5.6400    1.9850   -0.3230 o         1 MOL     -0.605889
     45 H17         8.0930    3.1060   -2.6210 hn        1 MOL      0.273447
     46 H18         6.9130    4.4860   -1.5320 h1        1 MOL      0.150057
     47 H19         7.9900    4.0910   -0.1630 h1        1 MOL      0.150057
     48 N5          5.3580    4.0080    0.6090 n         1 MOL     -0.635651
     49 C16         4.1450    3.6450    1.1820 c3        1 MOL      0.397577
     50 C17         3.0070    4.5040    0.5860 c         1 MOL      0.512346
     51 O10         3.2550    5.4050   -0.2550 o         1 MOL     -0.510037
     52 C18         4.3700    3.7330    2.7390 c3        1 MOL     -0.433677
     53 C19         5.5160    2.8250    3.1440 c         1 MOL      0.854702
     54 N6          6.2510    3.0830    4.2340 n         1 MOL     -0.790418
     55 O11         5.8090    1.7570    2.5990 o         1 MOL     -0.708914
     56 H20         5.6350    4.9770    0.5050 hn        1 MOL      0.284102
     57 H21         3.8720    2.6150    0.9780 h1        1 MOL      0.028364
     58 H22         3.4030    3.4960    3.1830 hc        1 MOL      0.096851
     59 H23         4.6470    4.7210    3.1080 hc        1 MOL      0.096851
     60 H24         6.1370    3.9110    4.8130 hn        1 MOL      0.352108
     61 H25         6.8060    2.3420    4.6180 hn        1 MOL      0.352108
     62 N7          1.8140    4.1570    1.0360 n         1 MOL     -0.549442
     63 C20         0.6120    4.9740    0.9090 c3        1 MOL      0.027680
     64 C21         0.0130    5.0130   -0.5390 c         1 MOL      0.640789
     65 O12         0.6500    4.5290   -1.4620 o         1 MOL     -0.502010
     66 H26         1.6880    3.4020    1.7000 hn        1 MOL      0.357441
     67 H27         0.7520    5.9680    1.3390 h1        1 MOL      0.076620
     68 H28        -0.1240    4.5170    1.5740 h1        1 MOL      0.076620
     69 N8         -1.1130    5.6750   -0.7870 n         1 MOL     -0.615166
     70 C22        -1.9070    6.4160    0.2660 c3        1 MOL     -0.026430
     71 C23        -2.8500    5.4750    1.0470 c         1 MOL      0.320280
     72 O13        -3.0150    5.5390    2.2620 o         1 MOL     -0.522866
     73 C24        -2.6720    7.5390   -0.3920 c3        1 MOL      0.405752
     74 C25        -1.8150    8.6550   -0.8850 c3        1 MOL     -0.449926
     75 O14        -3.4550    6.9910   -1.4350 oh        1 MOL     -0.608771
     76 H29        -1.3320    5.8120   -1.7730 hn        1 MOL      0.369348
     77 H30        -1.3020    6.9170    1.0250 h1        1 MOL      0.064461
     78 H31        -3.4520    7.8680    0.2860 h1        1 MOL      0.008124
     79 H32        -4.2860    7.4670   -1.5020 ho        1 MOL      0.397028
     80 H33        -1.0940    8.9070   -0.1120 hc        1 MOL      0.115513
     81 H34        -1.2920    8.2860   -1.7740 hc        1 MOL      0.115513
     82 H35        -2.2920    9.6140   -1.0460 hc        1 MOL      0.115513
     83 N9         -3.3800    4.4450    0.3050 n         1 MOL     -0.125693
     84 C26        -4.2440    3.3310    0.6390 c3        1 MOL      0.074130
     85 C27        -3.7380    2.0910   -0.0570 c         1 MOL      0.292664
     86 O15        -3.0790    2.2590   -1.0930 o         1 MOL     -0.536944
     87 C28        -5.7290    3.6270    0.2650 c3        1 MOL      0.052209
     88 C29        -6.0500    4.3410   -1.1080 c3        1 MOL      0.040428
     89 C30        -6.3800    4.5370    1.3610 c3        1 MOL     -0.364934
     90 C31        -5.7410    3.4080   -2.3610 c3        1 MOL     -0.215804
     91 H36        -3.2160    4.5590   -0.6850 hn        1 MOL      0.210514
     92 H37        -4.2140    3.1840    1.7250 h1        1 MOL      0.102884
     93 H38        -6.2340    2.6600    0.1960 hc        1 MOL      0.069045
     94 H39        -5.5070    5.2810   -1.1850 hc        1 MOL     -0.018098
     95 H40        -7.1070    4.5970   -1.1940 hc        1 MOL     -0.018098
     96 H41        -6.3190    4.0680    2.3440 hc        1 MOL      0.086188
     97 H42        -5.8760    5.5060    1.3980 hc        1 MOL      0.086188
     98 H43        -7.4350    4.6020    1.1120 hc        1 MOL      0.086188
     99 H44        -6.4180    3.5600   -3.1980 hc        1 MOL      0.051771
    100 H45        -4.7270    3.5740   -2.7450 hc        1 MOL      0.051771
    101 H46        -5.7350    2.3560   -2.0800 hc        1 MOL      0.051771
    102 N10        -4.0370    0.8230    0.3100 n         1 MOL     -0.093326
    103 C32        -4.7760    0.3010    1.5260 c3        1 MOL      0.080316
    104 C33        -6.2980    0.1070    1.2890 c         1 MOL      0.338420
    105 O16        -7.0840    0.1550    2.2360 o         1 MOL     -0.528228
    106 C34        -4.1230   -1.0020    1.9150 c3        1 MOL     -0.301723
    107 C35        -2.6700   -0.7980    2.3070 c         1 MOL      0.687654
    108 O17        -1.7870   -1.0820    1.4890 o         1 MOL     -0.723407
    109 O18        -2.4010   -0.1450    3.3250 o         1 MOL     -0.723407
    110 H47        -3.8910    0.1210   -0.3950 hn        1 MOL      0.224066
    111 H48        -4.6330    1.0600    2.2920 h1        1 MOL      0.034365
    112 H49        -4.1660   -1.7430    1.1240 hc        1 MOL      0.071847
    113 H50        -4.6650   -1.3380    2.8020 hc        1 MOL      0.071847
    114 N11        -6.6750   -0.0110    0.0520 n         1 MOL     -0.260450
    115 C36        -8.0470   -0.3980   -0.3270 c3        1 MOL      0.202209
    116 C37        -8.1990   -1.2000   -1.6410 c         1 MOL      0.200639
    117 O19        -7.3700   -1.0130   -2.5760 o         1 MOL     -0.476511
    118 C38        -8.8510    0.8740   -0.3960 c3        1 MOL     -0.497122
    119 C39       -10.3810    0.7160   -0.5510 ca        1 MOL      0.202655
    120 C40       -11.0480    0.6720   -1.8120 ca        1 MOL     -0.246744
    121 C41       -11.1590    0.5060    0.6090 ca        1 MOL     -0.246744
    122 C42       -12.4290    0.2740   -1.8670 ca        1 MOL     -0.105258
    123 C43       -12.5310    0.3100    0.5420 ca        1 MOL     -0.105258
    124 C44       -13.1750    0.2210   -0.7000 ca        1 MOL     -0.114175
    125 H51        -6.0040    0.1360   -0.6910 hn        1 MOL      0.239144
    126 H52        -8.5150   -0.9820    0.4610 h1        1 MOL      0.056857
    127 H53        -8.4200    1.5320   -1.1620 hc        1 MOL      0.164403
    128 H54        -8.6880    1.3540    0.5650 hc        1 MOL      0.164403
    129 H55       -10.4550    0.7390   -2.7070 ha        1 MOL      0.148668
    130 H56       -10.6620    0.3830    1.5590 ha        1 MOL      0.148668
    131 H57       -12.9590    0.1270   -2.7940 ha        1 MOL      0.110209
    132 H58       -13.1010   -0.0210    1.4090 ha        1 MOL      0.110209
    133 H59       -14.2480    0.1170   -0.8020 ha        1 MOL      0.086102
    134 N12        -9.2190   -2.0580   -1.7980 n         1 MOL      0.180967
    135 C45       -10.1720   -2.6130   -0.8500 c3        1 MOL      0.244048
    136 C46        -9.6670   -3.4810    0.3200 c         1 MOL      0.235662
    137 O20       -10.2640   -3.3380    1.4230 o         1 MOL     -0.556334
    138 C47       -11.1880   -3.5100   -1.6340 c3        1 MOL     -0.245682
    139 C48       -10.8010   -3.2660   -3.0970 c3        1 MOL      0.338992
    140 C49        -9.3510   -2.7030   -3.0790 c3        1 MOL     -0.172961
    141 H60       -10.6870   -1.7730   -0.3690 h1        1 MOL      0.017114
    142 H61       -11.0570   -4.5650   -1.4210 hc        1 MOL      0.049181
    143 H62       -12.2110   -3.1420   -1.4940 hc        1 MOL      0.049181
    144 H63       -10.8970   -4.1740   -3.6950 hc        1 MOL     -0.104312
    145 H64       -11.4280   -2.4720   -3.4910 hc        1 MOL     -0.104312
    146 H65        -8.6720   -3.5370   -3.2450 h1        1 MOL      0.053831
    147 H66        -9.2950   -1.9680   -3.8920 h1        1 MOL      0.053831
    148 N13        -8.4660   -4.0420    0.1130 n         1 MOL     -0.033136
    149 C50        -7.6290   -4.5740    1.1470 c3        1 MOL      0.074421
    150 C51        -7.6700   -6.0990    1.3350 c         1 MOL      0.404737
    151 O21        -7.9630   -6.8370    0.4230 o         1 MOL     -0.564789
    152 C52        -6.2180   -3.9700    0.9380 c3        1 MOL      0.070787
    153 C53        -5.2360   -4.5610   -0.1780 c3        1 MOL     -0.026663
    154 C54        -5.5710   -4.3150   -1.6440 c         1 MOL      0.643733
    155 O22        -6.7130   -4.5760   -2.1350 o         1 MOL     -0.665476
    156 O23        -4.7420   -3.7600   -2.3210 o         1 MOL     -0.665476
    157 H67        -8.0290   -4.0640   -0.7990 hn        1 MOL      0.040585
    158 H68        -8.0170   -4.0930    2.0430 h1        1 MOL      0.044112
    159 H69        -5.7080   -4.0050    1.8930 hc        1 MOL     -0.012200
    160 H70        -6.3850   -2.9110    0.7390 hc        1 MOL     -0.012200
    161 H71        -5.0030   -5.6100    0.0200 hc        1 MOL     -0.016997
    162 H72        -4.2460   -4.1250   -0.0280 hc        1 MOL     -0.016997
    163 N14        -7.4420   -6.6910    2.4570 n         1 MOL     -0.281101
    164 C55        -7.0400   -6.1890    3.7840 c3        1 MOL     -0.153389
    165 H73        -6.2830   -6.8480    4.2070 h1        1 MOL      0.073337
    166 H74        -6.6300   -5.1830    3.6830 h1        1 MOL      0.073337
    167 H75        -7.9090   -6.1630    4.4410 h1        1 MOL      0.073337
    168 H76        -7.4590   -7.7050    2.3540 hn        1 MOL      0.250254
    169 Ca1         6.4340   -0.3640    0.8870 Ca        1 MOL      1.801797
    170 O24         7.0240   -0.8210    3.4560 oh        1 MOL     -0.847413
    171 H77         6.7620   -0.2540    4.1770 ho        1 MOL      0.424825
    172 H78         7.7140   -1.3680    3.8250 ho        1 MOL      0.424825
    173 O25         4.4200   -0.9570   -0.9740 oh        1 MOL     -0.847413
    174 H79         3.5140   -0.7160   -1.1390 ho        1 MOL      0.424825
    175 H80         4.5910   -1.6690   -1.5820 ho        1 MOL      0.424825
    176 O26         4.3160   -1.3710    2.1330 oh        1 MOL     -0.847413
    177 H81         3.4720   -1.4040    1.6780 ho        1 MOL      0.424825
    178 H82         4.0880   -1.4620    3.0630 ho        1 MOL      0.424825
@<TRIPOS>BOND
     1    1    2 1   
     2    1    4 1   
     3    1    5 1   
     4    1    6 1   
     5    2    3 2   
     6    2    7 1   
     7    7    8 1   
     8    7   15 1   
     9    8    9 1   
    10    8   11 1   
    11    8   16 1   
    12    9   10 2   
    13    9   19 1   
    14   11   12 1   
    15   11   17 1   
    16   11   18 1   
    17   12   13 1   
    18   12   14 1   
    19   19   20 1   
    20   19   24 1   
    21   20   21 1   
    22   20   23 1   
    23   20   25 1   
    24   21   22 2   
    25   21   29 1   
    26   23   26 1   
    27   23   27 1   
    28   23   28 1   
    29   29   30 1   
    30   29   37 1   
    31   30   31 1   
    32   30   33 1   
    33   30   38 1   
    34   31   32 2   
    35   31   41 1   
    36   33   34 1   
    37   33   39 1   
    38   33   40 1   
    39   34   35 1   
    40   34   36 1   
    41   41   42 1   
    42   41   45 1   
    43   42   43 1   
    44   42   46 1   
    45   42   47 1   
    46   43   44 2   
    47   43   48 1   
    48   48   49 1   
    49   48   56 1   
    50   49   50 1   
    51   49   52 1   
    52   49   57 1   
    53   50   51 2   
    54   50   62 1   
    55   52   53 1   
    56   52   58 1   
    57   52   59 1   
    58   53   54 1   
    59   53   55 2   
    60   54   60 1   
    61   54   61 1   
    62   62   63 1   
    63   62   66 1   
    64   63   64 1   
    65   63   67 1   
    66   63   68 1   
    67   64   65 2   
    68   64   69 1   
    69   69   70 1   
    70   69   76 1   
    71   70   71 1   
    72   70   73 1   
    73   70   77 1   
    74   71   72 2   
    75   71   83 1   
    76   73   74 1   
    77   73   75 1   
    78   73   78 1   
    79   74   80 1   
    80   74   81 1   
    81   74   82 1   
    82   75   79 1   
    83   83   84 1   
    84   83   91 1   
    85   84   85 1   
    86   84   87 1   
    87   84   92 1   
    88   85   86 2   
    89   85  102 1   
    90   87   88 1   
    91   87   89 1   
    92   87   93 1   
    93   88   90 1   
    94   88   94 1   
    95   88   95 1   
    96   89   96 1   
    97   89   97 1   
    98   89   98 1   
    99   90   99 1   
   100   90  100 1   
   101   90  101 1   
   102  102  103 1   
   103  102  110 1   
   104  103  104 1   
   105  103  106 1   
   106  103  111 1   
   107  104  105 2   
   108  104  114 1   
   109  106  107 1   
   110  106  112 1   
   111  106  113 1   
   112  107  108 1   
   113  107  109 1   
   114  114  115 1   
   115  114  125 1   
   116  115  116 1   
   117  115  118 1   
   118  115  126 1   
   119  116  117 2   
   120  116  134 1   
   121  118  119 1   
   122  118  127 1   
   123  118  128 1   
   124  119  120 ar  
   125  119  121 ar  
   126  120  122 ar  
   127  120  129 1   
   128  121  123 ar  
   129  121  130 1   
   130  122  124 ar  
   131  122  131 1   
   132  123  124 ar  
   133  123  132 1   
   134  124  133 1   
   135  134  135 1   
   136  134  140 1   
   137  135  136 1   
   138  135  138 1   
   139  135  141 1   
   140  136  137 2   
   141  136  148 1   
   142  138  139 1   
   143  138  142 1   
   144  138  143 1   
   145  139  140 1   
   146  139  144 1   
   147  139  145 1   
   148  140  146 1   
   149  140  147 1   
   150  148  149 1   
   151  148  157 1   
   152  149  150 1   
   153  149  152 1   
   154  149  158 1   
   155  150  151 2   
   156  150  163 1   
   157  152  153 1   
   158  152  159 1   
   159  152  160 1   
   160  153  154 1   
   161  153  161 1   
   162  153  162 1   
   163  154  155 1   
   164  154  156 1   
   165  163  164 1   
   166  163  168 1   
   167  164  165 1   
   168  164  166 1   
   169  164  167 1   
   170  170  171 1   
   171  170  172 1   
   172  173  174 1   
   173  173  175 1   
   174  176  177 1   
   175  176  178 1   
@<TRIPOS>SUBSTRUCTURE
     1 MOL         1 TEMP              0 ****  ****    0 ROOT
