@<TRIPOS>MOLECULE
MOL
  184   179     1     0     0
SMALL
resp


@<TRIPOS>ATOM
      1 C1          2.5120   -1.6800    4.8930 c3        1 MOL     -0.355982
      2 C2          3.5250   -1.1790    3.9070 c         1 MOL      0.625127
      3 O1          3.4410   -1.5380    2.7450 o         1 MOL     -0.539637
      4 H1          2.4760   -1.0070    5.7490 hc        1 MOL      0.090791
      5 H2          1.5310   -1.7170    4.4200 hc        1 MOL      0.090791
      6 H3          2.7930   -2.6790    5.2270 hc        1 MOL      0.090791
      7 N1          4.5940   -0.4840    4.3100 n         1 MOL     -0.440834
      8 C3          5.6080    0.1280    3.4910 c3        1 MOL      0.074330
      9 C4          6.3050   -0.7950    2.4900 c         1 MOL      0.495565
     10 O2          6.6800   -0.3900    1.3370 o         1 MOL     -0.486677
     11 C5          6.5630    0.7360    4.4480 c3        1 MOL     -0.051119
     12 C6          7.6070    1.5830    3.7130 c         1 MOL      0.740187
     13 O3          7.2960    2.5560    3.0020 o         1 MOL     -0.728226
     14 O4          8.7490    1.3800    4.1110 o         1 MOL     -0.728226
     15 H4          4.7070   -0.2890    5.3010 hn        1 MOL      0.242589
     16 H5          5.1330    0.9570    2.9690 h1        1 MOL      0.031717
     17 H6          7.1330    0.0140    5.0360 hc        1 MOL     -0.029215
     18 H7          6.0250    1.3490    5.1670 hc        1 MOL     -0.029215
     19 N2          6.4650   -2.0240    2.9240 n         1 MOL     -0.503773
     20 C7          6.9510   -3.1800    2.1820 c3        1 MOL      0.496894
     21 C8          6.4930   -3.2610    0.6530 c         1 MOL      0.254313
     22 O5          7.2470   -3.5910   -0.3160 o         1 MOL     -0.477340
     23 C9          8.4900   -3.3300    2.3410 c3        1 MOL     -0.502300
     24 H8          6.2480   -2.0780    3.9090 hn        1 MOL      0.246358
     25 H9          6.4550   -4.0900    2.5280 h1        1 MOL     -0.039903
     26 H10         8.7560   -4.2130    1.7640 hc        1 MOL      0.125196
     27 H11         8.9990   -2.4690    1.9080 hc        1 MOL      0.125196
     28 H12         8.6390   -3.5830    3.3960 hc        1 MOL      0.125196
     29 N3          5.1770   -3.0030    0.4040 n         1 MOL     -0.353375
     30 C10         4.5190   -2.8080   -0.8260 c3        1 MOL      0.359553
     31 C11         5.2010   -1.8010   -1.8100 c         1 MOL      0.282413
     32 O6          5.3750   -2.0180   -3.0300 o         1 MOL     -0.472910
     33 C12         4.2050   -4.2180   -1.4760 c3        1 MOL     -0.099747
     34 C13         3.0590   -4.2060   -2.5520 c         1 MOL      0.523676
     35 O7          1.9300   -3.6830   -2.3080 o         1 MOL     -0.638892
     36 O8          3.3250   -4.6130   -3.6630 o         1 MOL     -0.638892
     37 H13         4.5330   -2.9310    1.1850 hn        1 MOL      0.235001
     38 H14         3.5260   -2.4100   -0.6430 h1        1 MOL     -0.080898
     39 H15         3.8990   -4.8350   -0.6180 hc        1 MOL      0.006114
     40 H16         5.1210   -4.6060   -1.9100 hc        1 MOL      0.006114
     41 N4          5.6620   -0.6810   -1.3030 n         1 MOL     -0.026493
     42 C14         6.4200    0.3890   -1.9890 c3        1 MOL     -0.117219
     43 C15         5.5080    1.2270   -2.8930 c         1 MOL      0.473929
     44 O9          5.9920    1.6040   -3.9220 o         1 MOL     -0.572764
     45 H17         5.6000   -0.5630   -0.3080 hn        1 MOL      0.076625
     46 H18         7.2060   -0.0690   -2.5960 h1        1 MOL      0.092693
     47 H19         6.8910    1.0200   -1.2380 h1        1 MOL      0.092693
     48 N5          4.2920    1.4010   -2.5130 n         1 MOL     -0.200762
     49 C16         3.2520    2.1740   -3.1160 c3        1 MOL      0.003551
     50 C17         3.2770    3.5880   -2.5090 c         1 MOL      0.488193
     51 O10         3.0480    3.6430   -1.3080 o         1 MOL     -0.498309
     52 C18         1.9740    1.4050   -2.8840 c3        1 MOL     -0.243844
     53 C19         1.9550   -0.1100   -3.2840 c         1 MOL      0.657267
     54 N6          2.1660   -0.9880   -2.3370 n         1 MOL     -0.465267
     55 O11         1.6220   -0.5180   -4.3210 o         1 MOL     -0.608184
     56 H20         4.0160    0.9150   -1.6770 hn        1 MOL      0.125913
     57 H21         3.4060    2.3100   -4.1920 h1        1 MOL      0.048530
     58 H22         1.1170    1.9040   -3.3440 hc        1 MOL      0.083478
     59 H23         1.7870    1.5050   -1.8110 hc        1 MOL      0.083478
     60 H24         2.1790   -0.6350   -1.3840 hn        1 MOL      0.289492
     61 H25         2.0390   -1.9740   -2.5200 hn        1 MOL      0.289492
     62 N7          3.4000    4.6710   -3.3370 n         1 MOL     -0.331207
     63 C20         3.1120    6.0620   -2.9760 c3        1 MOL     -0.159036
     64 C21         1.6280    6.3870   -2.6730 c         1 MOL      0.609943
     65 O12         0.8020    6.1630   -3.5620 o         1 MOL     -0.525197
     66 H26         3.6990    4.6010   -4.2980 hn        1 MOL      0.278853
     67 H27         3.4230    6.7230   -3.7860 h1        1 MOL      0.083415
     68 H28         3.6830    6.3030   -2.0760 h1        1 MOL      0.083415
     69 N8          1.3320    6.9130   -1.4800 n         1 MOL     -0.635973
     70 C22        -0.0130    7.2750   -1.1430 c3        1 MOL      0.100582
     71 C23        -0.7160    6.1680   -0.4390 c         1 MOL      0.557030
     72 O13        -1.9260    6.0930   -0.5810 o         1 MOL     -0.569876
     73 C24         0.1340    8.5130   -0.2230 c3        1 MOL      0.199467
     74 C25        -1.2020    9.0000    0.3620 c3        1 MOL     -0.356069
     75 O14         1.0410    8.3370    0.8230 oh        1 MOL     -0.633442
     76 H29         2.1010    7.2210   -0.9030 hn        1 MOL      0.349799
     77 H30        -0.5830    7.5460   -2.0340 h1        1 MOL      0.097793
     78 H31         0.3980    9.3640   -0.8440 h1        1 MOL      0.025931
     79 H32         0.9140    9.1600    1.2870 ho        1 MOL      0.426832
     80 H33        -1.1100    9.9840    0.8240 hc        1 MOL      0.093743
     81 H34        -1.9010    8.9480   -0.4690 hc        1 MOL      0.093743
     82 H35        -1.5360    8.2720    1.0910 hc        1 MOL      0.093743
     83 N9          0.0020    5.2250    0.1960 n         1 MOL     -0.274034
     84 C26        -0.6740    4.0810    0.8440 c3        1 MOL     -0.100225
     85 C27        -0.8840    2.8740   -0.0950 c         1 MOL      0.450757
     86 O15        -0.3070    2.7860   -1.2050 o         1 MOL     -0.422572
     87 C28         0.0950    3.7190    2.1940 c3        1 MOL      0.082773
     88 C29         1.5220    3.1380    1.8560 c3        1 MOL      0.035886
     89 C30         0.1650    4.9560    3.0760 c3        1 MOL     -0.408540
     90 C31         2.2750    2.7570    3.1150 c3        1 MOL     -0.126675
     91 H36         1.0080    5.3090    0.2240 hn        1 MOL      0.287306
     92 H37        -1.6650    4.4430    1.1100 h1        1 MOL      0.084875
     93 H38        -0.4050    2.9220    2.7470 hc        1 MOL      0.024733
     94 H39         2.0660    3.9010    1.2900 hc        1 MOL      0.049255
     95 H40         1.5040    2.2490    1.2370 hc        1 MOL      0.049255
     96 H41         0.7160    4.7700    4.0020 hc        1 MOL      0.100265
     97 H42         0.7710    5.7180    2.5980 hc        1 MOL      0.100265
     98 H43        -0.8120    5.4010    3.2900 hc        1 MOL      0.100265
     99 H44         3.3210    2.4990    2.9810 hc        1 MOL      0.034620
    100 H45         2.3620    3.6990    3.6480 hc        1 MOL      0.034620
    101 H46         1.7710    1.9690    3.6660 hc        1 MOL      0.034620
    102 N10        -1.6180    1.8740    0.3690 n         1 MOL     -0.556911
    103 C32        -1.8320    0.6410   -0.3570 c3        1 MOL      0.140872
    104 C33        -3.2640    0.1710   -0.4980 c         1 MOL      0.648527
    105 O16        -3.5950   -0.9540   -0.3450 o         1 MOL     -0.501650
    106 C34        -0.8810   -0.4460    0.1790 c3        1 MOL     -0.096686
    107 C35        -0.5620   -1.7700   -0.5850 c         1 MOL      0.546982
    108 O17        -0.0600   -2.7360    0.0270 o         1 MOL     -0.696613
    109 O18        -0.8970   -1.8940   -1.7750 o         1 MOL     -0.696613
    110 H47        -1.9530    2.0490    1.3110 hn        1 MOL      0.296889
    111 H48        -1.4990    0.8400   -1.3760 h1        1 MOL      0.024783
    112 H49        -1.3970   -0.7140    1.0990 hc        1 MOL      0.023496
    113 H50         0.0780    0.0270    0.3970 hc        1 MOL      0.023496
    114 N11        -4.1540    1.1590   -0.6600 n         1 MOL     -0.650065
    115 C36        -5.6060    0.9950   -0.7650 c3        1 MOL      0.368009
    116 C37        -6.1480    0.2110    0.4560 c         1 MOL      0.170109
    117 O19        -5.9590    0.6510    1.5970 o         1 MOL     -0.484575
    118 C38        -6.3400    2.3440   -0.8850 c3        1 MOL     -0.215971
    119 C39        -7.8530    2.1390   -0.8250 ca        1 MOL      0.052729
    120 C40        -8.4800    1.7410   -2.0260 ca        1 MOL     -0.152397
    121 C41        -8.6530    2.2140    0.3920 ca        1 MOL     -0.152397
    122 C42        -9.9330    1.6000   -2.0120 ca        1 MOL     -0.115233
    123 C43       -10.0430    2.1510    0.3590 ca        1 MOL     -0.115233
    124 C44       -10.6960    1.7820   -0.8660 ca        1 MOL     -0.126290
    125 H51        -3.7080    2.0090   -0.9690 hn        1 MOL      0.335704
    126 H52        -5.8220    0.4690   -1.6940 h1        1 MOL     -0.007742
    127 H53        -6.1320    2.7510   -1.8770 hc        1 MOL      0.096432
    128 H54        -5.9240    3.0330   -0.1530 hc        1 MOL      0.096432
    129 H55        -7.8980    1.7580   -2.9390 ha        1 MOL      0.134828
    130 H56        -8.2240    2.4710    1.3450 ha        1 MOL      0.134828
    131 H57       -10.4910    1.3780   -2.9110 ha        1 MOL      0.106378
    132 H58       -10.6400    2.2630    1.2540 ha        1 MOL      0.106378
    133 H59       -11.7470    1.5340   -0.8830 ha        1 MOL      0.112065
    134 N12        -6.8740   -0.9020    0.2610 n         1 MOL     -0.021739
    135 C45        -7.5510   -1.5690    1.4530 c3        1 MOL      0.192204
    136 C46        -6.5850   -2.2890    2.4080 c         1 MOL      0.091338
    137 O20        -7.0680   -2.9020    3.3980 o         1 MOL     -0.506032
    138 C47        -8.5300   -2.6050    0.8440 c3        1 MOL     -0.104774
    139 C48        -8.7160   -2.1730   -0.6060 c3        1 MOL     -0.005563
    140 C49        -7.3900   -1.5700   -0.9260 c3        1 MOL      0.053500
    141 H60        -8.1700   -0.9000    2.0500 h1        1 MOL      0.066505
    142 H61        -7.9900   -3.5530    0.8850 hc        1 MOL      0.049037
    143 H62        -9.4860   -2.6960    1.3550 hc        1 MOL      0.049037
    144 H63        -8.9410   -3.0210   -1.2490 hc        1 MOL      0.010570
    145 H64        -9.5130   -1.4270   -0.6060 hc        1 MOL      0.010570
    146 H65        -6.6610   -2.3520   -1.1030 h1        1 MOL      0.012379
    147 H66        -7.5940   -0.9350   -1.7920 h1        1 MOL      0.012379
    148 N13        -5.2410   -2.2170    2.2330 n         1 MOL      0.170558
    149 C50        -4.2460   -2.6730    3.2210 c3        1 MOL     -0.055499
    150 C51        -3.8040   -1.4260    4.0430 c         1 MOL      0.313045
    151 O21        -3.3540   -1.6330    5.2000 o         1 MOL     -0.540543
    152 C52        -3.0630   -3.3550    2.5060 c3        1 MOL     -0.001293
    153 C53        -3.4940   -4.5760    1.6540 c3        1 MOL     -0.158556
    154 C54        -2.4860   -4.9170    0.5130 c         1 MOL      0.697837
    155 O22        -1.3640   -5.2330    0.8340 o         1 MOL     -0.714633
    156 O23        -2.8160   -4.7130   -0.6710 o         1 MOL     -0.714633
    157 H67        -4.8730   -1.6950    1.4470 hn        1 MOL      0.063752
    158 H68        -4.6670   -3.5050    3.7830 h1        1 MOL      0.099341
    159 H69        -2.2950   -3.7180    3.2020 hc        1 MOL      0.061638
    160 H70        -2.6280   -2.6970    1.7610 hc        1 MOL      0.061638
    161 H71        -4.4030   -4.2760    1.1270 hc        1 MOL      0.006374
    162 H72        -3.6430   -5.4650    2.2700 hc        1 MOL      0.006374
    163 N14        -4.0370   -0.2070    3.5820 n         1 MOL     -0.058308
    164 C55        -3.8730    1.0260    4.3530 c3        1 MOL     -0.175915
    165 H73        -3.4360    0.7910    5.3230 h1        1 MOL      0.080563
    166 H74        -3.2140    1.7070    3.8140 h1        1 MOL      0.080563
    167 H75        -4.8450    1.4970    4.4960 h1        1 MOL      0.080563
    168 H76        -4.5880   -0.1520    2.7320 hn        1 MOL      0.138353
    169 Ca1        -0.5210   -4.4240   -1.8760 Ca        1 MOL      1.715731
    170 O24        -1.2780   -6.9960   -1.9010 oh        1 MOL     -0.768489
    171 H77        -1.7080   -7.5560   -2.5400 ho        1 MOL      0.376134
    172 H78        -0.8680   -7.6090   -1.2850 ho        1 MOL      0.376134
    173 O25        -0.3210   -3.0400   -4.4110 oh        1 MOL     -0.768489
    174 H79         0.1160   -2.1960   -4.2980 ho        1 MOL      0.376134
    175 H80         0.3420   -3.5940   -4.8270 ho        1 MOL      0.376134
    176 O26         0.7370   -5.9520   -3.6440 oh        1 MOL     -0.768489
    177 H81         1.2730   -5.6650   -4.3820 ho        1 MOL      0.376134
    178 H82         1.0460   -6.8440   -3.4600 ho        1 MOL      0.376134
    179 O27        -2.5810   -4.7210   -3.7260 oh        1 MOL     -0.768489
    180 H83        -2.6680   -4.6300   -4.6760 ho        1 MOL      0.376134
    181 H84        -3.0950   -3.9940   -3.3720 ho        1 MOL      0.376134
    182 O28         1.1160   -5.5230   -0.0640 oh        1 MOL     -0.768489
    183 H85         0.3410   -5.2670    0.4320 ho        1 MOL      0.376134
    184 H86         1.8100   -5.5960    0.6010 ho        1 MOL      0.376134
@<TRIPOS>BOND
     1    1    2 1   
     2    1    4 1   
     3    1    5 1   
     4    1    6 1   
     5    2    3 2   
     6    2    7 1   
     7    7    8 1   
     8    7   15 1   
     9    8    9 1   
    10    8   11 1   
    11    8   16 1   
    12    9   10 2   
    13    9   19 1   
    14   11   12 1   
    15   11   17 1   
    16   11   18 1   
    17   12   13 1   
    18   12   14 1   
    19   19   20 1   
    20   19   24 1   
    21   20   21 1   
    22   20   23 1   
    23   20   25 1   
    24   21   22 2   
    25   21   29 1   
    26   23   26 1   
    27   23   27 1   
    28   23   28 1   
    29   29   30 1   
    30   29   37 1   
    31   30   31 1   
    32   30   33 1   
    33   30   38 1   
    34   31   32 2   
    35   31   41 1   
    36   33   34 1   
    37   33   39 1   
    38   33   40 1   
    39   34   35 1   
    40   34   36 1   
    41   41   42 1   
    42   41   45 1   
    43   42   43 1   
    44   42   46 1   
    45   42   47 1   
    46   43   44 2   
    47   43   48 1   
    48   48   49 1   
    49   48   56 1   
    50   49   50 1   
    51   49   52 1   
    52   49   57 1   
    53   50   51 2   
    54   50   62 1   
    55   52   53 1   
    56   52   58 1   
    57   52   59 1   
    58   53   54 1   
    59   53   55 2   
    60   54   60 1   
    61   54   61 1   
    62   62   63 1   
    63   62   66 1   
    64   63   64 1   
    65   63   67 1   
    66   63   68 1   
    67   64   65 2   
    68   64   69 1   
    69   69   70 1   
    70   69   76 1   
    71   70   71 1   
    72   70   73 1   
    73   70   77 1   
    74   71   72 2   
    75   71   83 1   
    76   73   74 1   
    77   73   75 1   
    78   73   78 1   
    79   74   80 1   
    80   74   81 1   
    81   74   82 1   
    82   75   79 1   
    83   83   84 1   
    84   83   91 1   
    85   84   85 1   
    86   84   87 1   
    87   84   92 1   
    88   85   86 2   
    89   85  102 1   
    90   87   88 1   
    91   87   89 1   
    92   87   93 1   
    93   88   90 1   
    94   88   94 1   
    95   88   95 1   
    96   89   96 1   
    97   89   97 1   
    98   89   98 1   
    99   90   99 1   
   100   90  100 1   
   101   90  101 1   
   102  102  103 1   
   103  102  110 1   
   104  103  104 1   
   105  103  106 1   
   106  103  111 1   
   107  104  105 2   
   108  104  114 1   
   109  106  107 1   
   110  106  112 1   
   111  106  113 1   
   112  107  108 1   
   113  107  109 1   
   114  114  115 1   
   115  114  125 1   
   116  115  116 1   
   117  115  118 1   
   118  115  126 1   
   119  116  117 2   
   120  116  134 1   
   121  118  119 1   
   122  118  127 1   
   123  118  128 1   
   124  119  120 ar  
   125  119  121 ar  
   126  120  122 ar  
   127  120  129 1   
   128  121  123 ar  
   129  121  130 1   
   130  122  124 ar  
   131  122  131 1   
   132  123  124 ar  
   133  123  132 1   
   134  124  133 1   
   135  134  135 1   
   136  134  140 1   
   137  135  136 1   
   138  135  138 1   
   139  135  141 1   
   140  136  137 2   
   141  136  148 1   
   142  138  139 1   
   143  138  142 1   
   144  138  143 1   
   145  139  140 1   
   146  139  144 1   
   147  139  145 1   
   148  140  146 1   
   149  140  147 1   
   150  148  149 1   
   151  148  157 1   
   152  149  150 1   
   153  149  152 1   
   154  149  158 1   
   155  150  151 2   
   156  150  163 1   
   157  152  153 1   
   158  152  159 1   
   159  152  160 1   
   160  153  154 1   
   161  153  161 1   
   162  153  162 1   
   163  154  155 1   
   164  154  156 1   
   165  163  164 1   
   166  163  168 1   
   167  164  165 1   
   168  164  166 1   
   169  164  167 1   
   170  170  171 1   
   171  170  172 1   
   172  173  174 1   
   173  173  175 1   
   174  176  177 1   
   175  176  178 1   
   176  179  180 1   
   177  179  181 1   
   178  182  183 1   
   179  182  184 1   
@<TRIPOS>SUBSTRUCTURE
     1 MOL         1 TEMP              0 ****  ****    0 ROOT
