@<TRIPOS>MOLECULE
MOL
  182   178     1     0     0
SMALL
resp


@<TRIPOS>ATOM
      1 C1          0.3680   -3.1770    6.4870 c3        1 MOL     -0.497147
      2 C2          0.3150   -3.1360    4.9360 c         1 MOL      0.799331
      3 O1         -0.7250   -3.1220    4.2510 o         1 MOL     -0.655235
      4 H1          1.2830   -3.6780    6.8050 hc        1 MOL      0.139282
      5 H2          0.3570   -2.1600    6.8790 hc        1 MOL      0.139282
      6 H3         -0.4950   -3.7230    6.8660 hc        1 MOL      0.139282
      7 N1          1.5220   -3.1260    4.3520 n         1 MOL     -0.608546
      8 C3          1.7690   -2.9790    2.9220 c3        1 MOL      0.029252
      9 C4          1.7240   -4.3520    2.1740 c         1 MOL      0.485725
     10 O2          2.0180   -5.4440    2.7310 o         1 MOL     -0.535439
     11 C5          3.1730   -2.3080    2.8160 c3        1 MOL     -0.001888
     12 C6          3.4960   -1.6390    1.5080 c         1 MOL      0.239697
     13 O3          4.3770   -0.8220    1.4000 o         1 MOL     -0.532716
     14 O4          2.9170   -1.9850    0.4720 o         1 MOL     -0.532716
     15 H4          2.3100   -3.1800    4.9830 hn        1 MOL      0.302557
     16 H5          1.0640   -2.2440    2.5590 h1        1 MOL      0.222277
     17 H6          3.8920   -3.0900    3.0880 hc        1 MOL      0.056567
     18 H7          3.2510   -1.5670    3.6080 hc        1 MOL      0.056567
     19 N2          1.2560   -4.2860    0.9190 n         1 MOL     -0.288908
     20 C7          0.9400   -5.4600    0.0930 c3        1 MOL     -0.044678
     21 C8          2.0680   -5.6020   -0.9650 c         1 MOL      0.572153
     22 O5          2.2170   -6.6710   -1.5860 o         1 MOL     -0.597260
     23 C9         -0.5190   -5.3500   -0.4560 c3        1 MOL      0.149286
     24 C10        -1.0020   -6.4090   -1.4850 c3        1 MOL     -0.093832
     25 C11        -2.4490   -6.1700   -1.7980 c3        1 MOL     -0.019794
     26 C12        -2.9650   -7.4520   -2.4940 c3        1 MOL      0.074345
     27 N3         -4.4690   -7.4030   -2.7080 n4        1 MOL     -0.227658
     28 H8          1.0430   -3.3590    0.5650 hn        1 MOL      0.177022
     29 H9          1.0660   -6.3620    0.7010 h1        1 MOL      0.105191
     30 H10        -0.6320   -4.3870   -0.9500 hc        1 MOL     -0.008224
     31 H11        -1.1500   -5.4940    0.4170 hc        1 MOL     -0.008224
     32 H12        -0.8110   -7.3910   -1.0440 hc        1 MOL      0.034578
     33 H13        -0.3160   -6.2580   -2.3130 hc        1 MOL      0.034578
     34 H14        -2.5420   -5.2740   -2.4130 hc        1 MOL      0.045908
     35 H15        -3.0820   -6.0540   -0.9070 hc        1 MOL      0.045908
     36 H16        -2.7680   -8.3840   -1.9720 hx        1 MOL      0.065250
     37 H17        -2.5460   -7.5530   -3.4940 hx        1 MOL      0.065250
     38 H18        -4.9570   -7.4700   -1.8290 hn        1 MOL      0.255109
     39 H19        -4.8470   -6.5950   -3.1900 hn        1 MOL      0.255109
     40 H20        -4.8300   -8.2050   -3.2050 hn        1 MOL      0.255109
     41 N4          2.9770   -4.6290   -1.1470 n         1 MOL     -0.313728
     42 C13         4.1990   -4.6230   -2.0010 c3        1 MOL      0.018720
     43 C14         5.5100   -4.2410   -1.2600 c         1 MOL      0.529675
     44 O6          6.5330   -4.5960   -1.8820 o         1 MOL     -0.552419
     45 C15         3.8930   -3.7130   -3.1670 c3        1 MOL     -0.114856
     46 C16         3.5200   -2.2940   -2.7780 c         1 MOL      0.753638
     47 O7          2.4610   -1.7850   -3.1590 o         1 MOL     -0.778808
     48 O8          4.2640   -1.7020   -1.9810 o         1 MOL     -0.778808
     49 H21         2.7090   -3.7430   -0.7330 hn        1 MOL      0.051508
     50 H22         4.3520   -5.6030   -2.4580 h1        1 MOL      0.102713
     51 H23         3.1220   -4.0990   -3.8300 hc        1 MOL      0.048549
     52 H24         4.7890   -3.6900   -3.8000 hc        1 MOL      0.048549
     53 N5          5.4610   -3.5730   -0.0900 n         1 MOL     -0.283067
     54 C17         6.6080   -3.3630    0.6820 c3        1 MOL     -0.229704
     55 C18         7.2780   -2.0270    0.5190 c         1 MOL      0.483978
     56 O9          8.1510   -1.6710    1.3310 o         1 MOL     -0.553421
     57 H25         4.6110   -3.0570    0.1000 hn        1 MOL      0.237646
     58 H26         7.3120   -4.1790    0.5000 h1        1 MOL      0.137755
     59 H27         6.3330   -3.4060    1.7300 h1        1 MOL      0.137755
     60 N6          6.7780   -1.2160   -0.3950 n         1 MOL     -0.162376
     61 C19         7.3600    0.0620   -0.7280 c3        1 MOL      0.025274
     62 C20         6.2820    1.1650   -0.6010 c         1 MOL      0.583967
     63 O10         5.1090    0.9740   -0.9030 o         1 MOL     -0.516336
     64 C21         7.7970    0.0330   -2.2260 c3        1 MOL     -0.097467
     65 C22         8.8660    0.9800   -2.6860 c         1 MOL      0.673121
     66 N7          9.2320    1.0290   -3.9670 n         1 MOL     -0.842079
     67 O11         9.3730    1.7550   -1.8740 o         1 MOL     -0.578528
     68 H28         6.0810   -1.5630   -1.0400 hn        1 MOL      0.203214
     69 H29         8.2300    0.2500   -0.1020 h1        1 MOL      0.063671
     70 H30         6.9960    0.0370   -2.9810 hc        1 MOL      0.047152
     71 H31         8.2730   -0.9340   -2.3730 hc        1 MOL      0.047152
     72 H32         8.9980    0.3680   -4.7010 hn        1 MOL      0.378434
     73 H33         9.8250    1.8130   -4.1930 hn        1 MOL      0.378434
     74 N8          6.7980    2.3610   -0.2290 n         1 MOL     -0.549636
     75 C23         6.1190    3.5800   -0.4150 c3        1 MOL      0.085965
     76 C24         4.9770    3.9950    0.5500 c         1 MOL      0.576197
     77 O12         4.9880    3.5920    1.7240 o         1 MOL     -0.483082
     78 H34         7.8050    2.4370   -0.2770 hn        1 MOL      0.351370
     79 H35         5.7390    3.5820   -1.4430 h1        1 MOL      0.031915
     80 H36         6.8340    4.4050   -0.3770 h1        1 MOL      0.031915
     81 N9          3.9340    4.7400    0.1170 n         1 MOL     -0.640359
     82 C25         2.6200    4.7670    0.7230 c3        1 MOL      0.368347
     83 C26         2.0020    3.3360    0.8770 c         1 MOL      0.641617
     84 O13         2.2700    2.4170    0.0810 o         1 MOL     -0.673546
     85 C27         1.6370    5.6670   -0.1220 c3        1 MOL     -0.141268
     86 C28         2.0690    7.1170   -0.3720 ca        1 MOL      0.037276
     87 C29         2.5810    7.9380    0.6520 ca        1 MOL     -0.090737
     88 C30         1.7510    7.7850   -1.6470 ca        1 MOL     -0.090737
     89 C31         2.9430    9.2570    0.4520 ca        1 MOL     -0.351867
     90 C32         2.2050    9.0870   -1.9400 ca        1 MOL     -0.351867
     91 C33         2.8510    9.8430   -0.8550 ca        1 MOL      0.393919
     92 O14         3.1730   11.1470   -1.0390 oh        1 MOL     -0.469820
     93 H37         4.1090    5.2710   -0.7260 hn        1 MOL      0.284703
     94 H38         2.6170    5.1710    1.7390 h1        1 MOL     -0.011661
     95 H39         0.6380    5.6560    0.2910 hc        1 MOL      0.027691
     96 H40         1.6730    5.3380   -1.1630 hc        1 MOL      0.027691
     97 H41         2.7800    7.4820    1.6100 ha        1 MOL      0.118504
     98 H42         1.1740    7.3040   -2.4260 ha        1 MOL      0.118504
     99 H43         3.4420    9.7780    1.2550 ha        1 MOL      0.186778
    100 H44         1.8660    9.6250   -2.8080 ha        1 MOL      0.186778
    101 H45         2.9320   11.4650   -1.9060 ho        1 MOL      0.368700
    102 N10         1.0600    3.1910    1.8430 n         1 MOL     -0.680177
    103 C34         0.5310    1.9460    2.4330 c3        1 MOL      0.051772
    104 C35        -0.0090    0.8280    1.4480 c         1 MOL      0.452863
    105 O15         0.8240    0.0850    0.8680 o         1 MOL     -0.366165
    106 C36         1.5080    1.3630    3.4670 c3        1 MOL      0.278263
    107 C37         0.7750    0.4780    4.4600 c3        1 MOL     -0.195515
    108 C38         2.5530    2.3570    4.1920 c3        1 MOL     -0.271881
    109 C39        -0.2090    1.1250    5.3760 c3        1 MOL     -0.178991
    110 H46         0.8970    4.0180    2.3950 hn        1 MOL      0.339020
    111 H47        -0.2670    2.3800    3.0370 h1        1 MOL      0.067090
    112 H48         2.2120    0.7660    2.8900 hc        1 MOL     -0.024084
    113 H49         1.4520   -0.0350    5.1490 hc        1 MOL      0.068358
    114 H50         0.1890   -0.2400    3.8850 hc        1 MOL      0.068358
    115 H51         3.1510    2.7890    3.3950 hc        1 MOL      0.071861
    116 H52         2.0130    3.1470    4.7100 hc        1 MOL      0.071861
    117 H53         3.1840    1.8580    4.9170 hc        1 MOL      0.071861
    118 H54        -1.1070    1.4860    4.8740 hc        1 MOL      0.046723
    119 H55        -0.6370    0.3840    6.0590 hc        1 MOL      0.046723
    120 H56         0.2910    1.9440    5.8860 hc        1 MOL      0.046723
    121 N11        -1.3570    0.6430    1.2810 n         1 MOL     -0.242846
    122 C40        -1.8980   -0.4880    0.4360 c3        1 MOL     -0.383099
    123 C41        -3.4210   -0.5510    0.1380 c         1 MOL      0.796629
    124 O16        -3.8310   -1.1380   -0.8800 o         1 MOL     -0.587378
    125 C42        -1.6000   -1.8330    1.0770 c3        1 MOL      0.323294
    126 O17        -2.2000   -1.7200    2.3720 oh        1 MOL     -0.705189
    127 H57        -2.0470    1.2030    1.7580 hn        1 MOL      0.212155
    128 H58        -1.3380   -0.3910   -0.4950 h1        1 MOL      0.135540
    129 H59        -0.5590   -2.1380    1.1610 h1        1 MOL     -0.036053
    130 H60        -2.0980   -2.6620    0.5660 h1        1 MOL     -0.036053
    131 H61        -1.7110   -2.2840    2.9720 ho        1 MOL      0.476353
    132 N12        -4.3190    0.1100    0.8700 n         1 MOL     -0.631447
    133 C43        -5.6840    0.4020    0.3650 c3        1 MOL      0.090230
    134 C44        -5.7490    0.9340   -1.0520 c         1 MOL      0.815982
    135 O18        -4.8650    1.5870   -1.5160 o         1 MOL     -0.604669
    136 C45        -6.1950    1.4190    1.3630 c3        1 MOL     -0.244047
    137 H62        -4.0320    0.5940    1.7140 hn        1 MOL      0.375406
    138 H63        -6.3710   -0.4410    0.4900 h1        1 MOL      0.104140
    139 H64        -5.5320    2.2800    1.2570 hc        1 MOL      0.077425
    140 H65        -7.2180    1.6400    1.0770 hc        1 MOL      0.077425
    141 H66        -6.1400    1.0850    2.4030 hc        1 MOL      0.077425
    142 N13        -6.8560    0.6980   -1.7800 n         1 MOL     -0.859838
    143 C46        -8.1840    0.1030   -1.4040 c3        1 MOL      0.409573
    144 C47        -9.2750    0.8190   -2.2640 c         1 MOL      0.373799
    145 O19        -9.3260    0.6940   -3.5080 o         1 MOL     -0.550337
    146 C48        -8.2610   -1.4250   -1.6070 c3        1 MOL     -0.059239
    147 H67        -6.7010    1.0470   -2.7110 hn        1 MOL      0.362953
    148 H68        -8.3060    0.2900   -0.3450 h1        1 MOL     -0.002455
    149 H69        -8.3690   -1.6310   -2.6770 hc        1 MOL      0.005408
    150 H70        -7.4010   -1.9210   -1.1630 hc        1 MOL      0.005408
    151 H71        -9.2240   -1.6640   -1.1570 hc        1 MOL      0.005408
    152 N14       -10.2540    1.4530   -1.7110 n         1 MOL     -0.332143
    153 C49       -10.6600    1.5590   -0.3180 c3        1 MOL      0.012811
    154 C50       -10.0290    2.8030    0.3980 c         1 MOL      0.304876
    155 O20        -9.6750    2.6550    1.5700 o         1 MOL     -0.483249
    156 C51       -12.2240    1.5140   -0.2980 c3        1 MOL      0.079978
    157 C52       -12.7160    0.2060   -1.0130 c3        1 MOL     -0.052699
    158 C53       -12.6040   -1.0750   -0.1970 c         1 MOL      0.651270
    159 O21       -11.4590   -1.5620    0.1020 o         1 MOL     -0.641013
    160 O22       -13.5710   -1.5280    0.3560 o         1 MOL     -0.641013
    161 H72       -10.7890    1.9130   -2.4380 hn        1 MOL      0.281027
    162 H73       -10.3130    0.6940    0.2500 h1        1 MOL      0.078080
    163 H74       -12.6090    2.3930   -0.8090 hc        1 MOL      0.009864
    164 H75       -12.5050    1.4400    0.7490 hc        1 MOL      0.009864
    165 H76       -12.2660    0.0990   -2.0010 hc        1 MOL     -0.030726
    166 H77       -13.7940    0.3550   -1.0350 hc        1 MOL     -0.030726
    167 N15        -9.6580    3.9100   -0.2700 n         1 MOL     -0.249845
    168 C54        -8.7490    4.9520    0.2240 c3        1 MOL     -0.125548
    169 H78        -9.3260    5.8350    0.4980 h1        1 MOL      0.079108
    170 H79        -8.2130    4.5820    1.0980 h1        1 MOL      0.079108
    171 H80        -8.0360    5.2120   -0.5580 h1        1 MOL      0.079108
    172 H81       -10.0180    4.0130   -1.2130 hn        1 MOL      0.223990
    173 Ca1         2.6660    0.1480   -1.0650 Ca        1 MOL      1.740649
    174 O23         3.3720    1.8760   -3.1010 oh        1 MOL     -0.815833
    175 H82         2.6670    2.3010   -3.5930 ho        1 MOL      0.405536
    176 H83         4.1080    1.8680   -3.7180 ho        1 MOL      0.405536
    177 O24         0.6410   -1.9410   -1.4480 oh        1 MOL     -0.815833
    178 H84        -0.2350   -2.1460   -1.7630 ho        1 MOL      0.405536
    179 H85         1.2090   -2.0180   -2.2230 ho        1 MOL      0.405536
    180 O25         0.5980    1.6130   -2.0910 oh        1 MOL     -0.815833
    181 H86         0.4380    1.8010   -3.0140 ho        1 MOL      0.405536
    182 H87         0.3840    2.4340   -1.6340 ho        1 MOL      0.405536
@<TRIPOS>BOND
     1    1    2 1   
     2    1    4 1   
     3    1    5 1   
     4    1    6 1   
     5    2    3 2   
     6    2    7 1   
     7    7    8 1   
     8    7   15 1   
     9    8    9 1   
    10    8   11 1   
    11    8   16 1   
    12    9   10 2   
    13    9   19 1   
    14   11   12 1   
    15   11   17 1   
    16   11   18 1   
    17   12   13 1   
    18   12   14 1   
    19   19   20 1   
    20   19   28 1   
    21   20   21 1   
    22   20   23 1   
    23   20   29 1   
    24   21   22 2   
    25   21   41 1   
    26   23   24 1   
    27   23   30 1   
    28   23   31 1   
    29   24   25 1   
    30   24   32 1   
    31   24   33 1   
    32   25   26 1   
    33   25   34 1   
    34   25   35 1   
    35   26   27 1   
    36   26   36 1   
    37   26   37 1   
    38   27   38 1   
    39   27   39 1   
    40   27   40 1   
    41   41   42 1   
    42   41   49 1   
    43   42   43 1   
    44   42   45 1   
    45   42   50 1   
    46   43   44 2   
    47   43   53 1   
    48   45   46 1   
    49   45   51 1   
    50   45   52 1   
    51   46   47 1   
    52   46   48 1   
    53   53   54 1   
    54   53   57 1   
    55   54   55 1   
    56   54   58 1   
    57   54   59 1   
    58   55   56 2   
    59   55   60 1   
    60   60   61 1   
    61   60   68 1   
    62   61   62 1   
    63   61   64 1   
    64   61   69 1   
    65   62   63 2   
    66   62   74 1   
    67   64   65 1   
    68   64   70 1   
    69   64   71 1   
    70   65   66 1   
    71   65   67 2   
    72   66   72 1   
    73   66   73 1   
    74   74   75 1   
    75   74   78 1   
    76   75   76 1   
    77   75   79 1   
    78   75   80 1   
    79   76   77 2   
    80   76   81 1   
    81   81   82 1   
    82   81   93 1   
    83   82   83 1   
    84   82   85 1   
    85   82   94 1   
    86   83   84 2   
    87   83  102 1   
    88   85   86 1   
    89   85   95 1   
    90   85   96 1   
    91   86   87 ar  
    92   86   88 ar  
    93   87   89 ar  
    94   87   97 1   
    95   88   90 ar  
    96   88   98 1   
    97   89   91 ar  
    98   89   99 1   
    99   90   91 ar  
   100   90  100 1   
   101   91   92 1   
   102   92  101 1   
   103  102  103 1   
   104  102  110 1   
   105  103  104 1   
   106  103  106 1   
   107  103  111 1   
   108  104  105 2   
   109  104  121 1   
   110  106  107 1   
   111  106  108 1   
   112  106  112 1   
   113  107  109 1   
   114  107  113 1   
   115  107  114 1   
   116  108  115 1   
   117  108  116 1   
   118  108  117 1   
   119  109  118 1   
   120  109  119 1   
   121  109  120 1   
   122  121  122 1   
   123  121  127 1   
   124  122  123 1   
   125  122  125 1   
   126  122  128 1   
   127  123  124 2   
   128  123  132 1   
   129  125  126 1   
   130  125  129 1   
   131  125  130 1   
   132  126  131 1   
   133  132  133 1   
   134  132  137 1   
   135  133  134 1   
   136  133  136 1   
   137  133  138 1   
   138  134  135 2   
   139  134  142 1   
   140  136  139 1   
   141  136  140 1   
   142  136  141 1   
   143  142  143 1   
   144  142  147 1   
   145  143  144 1   
   146  143  146 1   
   147  143  148 1   
   148  144  145 2   
   149  144  152 1   
   150  146  149 1   
   151  146  150 1   
   152  146  151 1   
   153  152  153 1   
   154  152  161 1   
   155  153  154 1   
   156  153  156 1   
   157  153  162 1   
   158  154  155 2   
   159  154  167 1   
   160  156  157 1   
   161  156  163 1   
   162  156  164 1   
   163  157  158 1   
   164  157  165 1   
   165  157  166 1   
   166  158  159 1   
   167  158  160 1   
   168  167  168 1   
   169  167  172 1   
   170  168  169 1   
   171  168  170 1   
   172  168  171 1   
   173  174  175 1   
   174  174  176 1   
   175  177  178 1   
   176  177  179 1   
   177  180  181 1   
   178  180  182 1   
@<TRIPOS>SUBSTRUCTURE
     1 MOL         1 TEMP              0 ****  ****    0 ROOT
