@<TRIPOS>MOLECULE
MOL
  189   185     1     0     0
SMALL
resp


@<TRIPOS>ATOM
      1 C1          5.5790    4.8430   -2.7910 c3        1 MOL     -0.370124
      2 C2          5.9530    3.6480   -1.9110 c         1 MOL      0.769251
      3 O1          5.0420    3.2240   -1.2310 o         1 MOL     -0.662457
      4 H1          6.4650    5.1950   -3.3190 hc        1 MOL      0.092215
      5 H2          4.8220    4.5390   -3.5140 hc        1 MOL      0.092215
      6 H3          5.1850    5.6450   -2.1670 hc        1 MOL      0.092215
      7 N1          7.1430    2.9800   -2.1710 n         1 MOL     -0.706194
      8 C3          7.6030    1.6900   -1.6200 c3        1 MOL      0.354762
      9 C4          6.4360    0.6480   -1.7070 c         1 MOL      0.124973
     10 O2          5.8890    0.3670   -0.5730 o         1 MOL     -0.379217
     11 C5          8.4380    1.7250   -0.3770 c3        1 MOL     -0.090141
     12 C6          8.1040    2.8420    0.5750 c         1 MOL      0.698741
     13 O3          6.9360    2.8450    1.0250 o         1 MOL     -0.724932
     14 O4          8.9140    3.7560    0.8370 o         1 MOL     -0.724932
     15 H4          7.7680    3.3480   -2.8660 hn        1 MOL      0.341217
     16 H5          8.3340    1.3510   -2.3600 h1        1 MOL     -0.005461
     17 H6          9.4670    1.9730   -0.6550 hc        1 MOL      0.010876
     18 H7          8.4200    0.8560    0.2760 hc        1 MOL      0.010876
     19 N2          6.0630    0.0580   -2.8580 n         1 MOL     -0.297860
     20 C7          5.1390   -1.0490   -3.1220 c3        1 MOL      0.006927
     21 C8          5.4400   -2.4000   -2.4110 c         1 MOL      0.280606
     22 O5          5.4600   -3.4890   -3.0180 o         1 MOL     -0.539651
     23 C9          3.7790   -0.6190   -2.7120 c3        1 MOL      0.239854
     24 C10         2.6790   -1.6580   -3.1790 c3        1 MOL     -0.208844
     25 C11         3.3760    0.7500   -3.2550 c3        1 MOL     -0.173770
     26 C12         2.3490   -1.6730   -4.7020 c3        1 MOL     -0.081941
     27 H8          6.4830    0.5330   -3.6510 hn        1 MOL      0.247933
     28 H9          5.1070   -1.2070   -4.2080 h1        1 MOL      0.085404
     29 H10         3.7200   -0.6040   -1.6280 hc        1 MOL     -0.075626
     30 H11         1.8750   -1.4210   -2.4710 hc        1 MOL      0.093511
     31 H12         2.8360   -2.6930   -2.8970 hc        1 MOL      0.093511
     32 H13         3.7180    0.8330   -4.2920 hc        1 MOL      0.036794
     33 H14         2.3110    0.9540   -3.1640 hc        1 MOL      0.036794
     34 H15         3.8240    1.6030   -2.7340 hc        1 MOL      0.036794
     35 H16         3.2490   -1.9880   -5.2400 hc        1 MOL      0.007705
     36 H17         1.4580   -2.2690   -4.9140 hc        1 MOL      0.007705
     37 H18         2.0840   -0.6700   -5.0270 hc        1 MOL      0.007705
     38 N3          5.8890   -2.4140   -1.1890 n         1 MOL      0.015466
     39 C13         6.4430   -3.5560   -0.5090 c3        1 MOL     -0.071969
     40 C14         5.5300   -4.7760   -0.5690 c         1 MOL      0.644281
     41 O6          5.9260   -5.8830   -0.8480 o         1 MOL     -0.594545
     42 C15         7.0340   -3.2590    0.8700 c3        1 MOL     -0.185898
     43 C16         7.9030   -1.9640    1.0520 c         1 MOL      0.791164
     44 O7          8.7820   -1.6160    0.2480 o         1 MOL     -0.731392
     45 O8          7.6710   -1.2460    2.0880 o         1 MOL     -0.731392
     46 H19         5.8310   -1.5680   -0.6430 hn        1 MOL      0.142597
     47 H20         7.2850   -3.9030   -1.1200 h1        1 MOL      0.057060
     48 H21         7.6130   -4.0610    1.3230 hc        1 MOL      0.033852
     49 H22         6.1580   -3.0470    1.4890 hc        1 MOL      0.033852
     50 N4          4.2220   -4.5360   -0.3420 n         1 MOL     -0.541121
     51 C17         3.6070   -3.3960    0.3740 c3        1 MOL      0.084679
     52 C18         2.7560   -3.8530    1.5030 c         1 MOL      0.490670
     53 O9          2.6710   -5.0610    1.8210 o         1 MOL     -0.594493
     54 H23         3.6260   -5.3400   -0.4020 hn        1 MOL      0.295178
     55 H24         2.9230   -2.8210   -0.2550 h1        1 MOL      0.072671
     56 H25         4.2490   -2.5950    0.7480 h1        1 MOL      0.072671
     57 N5          2.0280   -2.9850    2.1990 n         1 MOL     -0.318671
     58 C19         2.0670   -1.5500    2.3510 c3        1 MOL      0.188671
     59 C20         2.2120   -0.7300    1.0070 c         1 MOL      0.479542
     60 O10         3.3070   -0.2370    0.8220 o         1 MOL     -0.815446
     61 C21         3.0690   -1.1060    3.4800 c3        1 MOL     -0.406569
     62 C22         2.8010   -1.8220    4.8030 c         1 MOL      0.792628
     63 O11         3.5700   -1.5950    5.6990 o         1 MOL     -0.737223
     64 O12         1.8190   -2.5620    4.9430 o         1 MOL     -0.737223
     65 H26         1.4650   -3.3800    2.9360 hn        1 MOL      0.256928
     66 H27         1.0660   -1.2380    2.6490 h1        1 MOL      0.016800
     67 H28         3.0300   -0.0500    3.7420 hc        1 MOL      0.116322
     68 H29         4.1090   -1.3090    3.2270 hc        1 MOL      0.116322
     69 N6          1.2830   -0.6990    0.1090 n         1 MOL     -0.085106
     70 C23        -0.1550   -1.1810    0.1680 c3        1 MOL     -0.485172
     71 C24        -0.4110   -2.6000   -0.2330 c         1 MOL      0.411133
     72 O13         0.3040   -3.1760   -1.0760 o         1 MOL     -0.434891
     73 H30         1.5380   -0.1270   -0.6780 hn        1 MOL      0.321378
     74 H31        -0.8220   -0.5170   -0.3740 h1        1 MOL      0.175938
     75 H32        -0.4690   -1.1570    1.2210 h1        1 MOL      0.175938
     76 N7         -1.5390   -3.0960    0.2960 n         1 MOL     -0.429414
     77 C25        -2.1740   -4.2830   -0.1830 c3        1 MOL     -0.008246
     78 C26        -2.7630   -4.0390   -1.6490 c         1 MOL      0.329520
     79 O14        -2.8820   -4.9670   -2.4560 o         1 MOL     -0.505721
     80 C27        -3.3440   -4.7050    0.6930 c3        1 MOL      0.365839
     81 C28        -2.9540   -5.4600    2.0100 c3        1 MOL     -0.582279
     82 C29        -2.2080   -4.5230    2.9720 c         1 MOL      0.722793
     83 N8         -2.9230   -3.9350    3.9530 n         1 MOL     -0.845882
     84 O15        -1.0010   -4.3550    2.9390 o         1 MOL     -0.495278
     85 H33        -2.0070   -2.4800    0.9560 hn        1 MOL      0.344202
     86 H34        -1.4350   -5.0820   -0.3170 h1        1 MOL      0.143202
     87 H35        -3.9960   -5.3710    0.1350 hc        1 MOL     -0.071429
     88 H36        -3.8600   -3.8160    1.0700 hc        1 MOL     -0.071429
     89 H37        -2.3450   -6.3160    1.7140 hc        1 MOL      0.144803
     90 H38        -3.8170   -5.8810    2.5210 hc        1 MOL      0.144803
     91 H39        -3.9330   -4.0020    3.9480 hn        1 MOL      0.380123
     92 H40        -2.4390   -3.3730    4.6440 hn        1 MOL      0.380123
     93 N9         -3.0710   -2.7440   -1.9050 n         1 MOL     -0.147705
     94 C30        -3.6090   -2.3600   -3.2580 c3        1 MOL     -0.036803
     95 C31        -4.9480   -1.6250   -3.2440 c         1 MOL      0.401092
     96 O16        -5.2900   -1.0220   -4.2620 o         1 MOL     -0.518033
     97 C32        -2.5490   -1.7100   -4.1970 c3        1 MOL      0.085568
     98 C33        -1.4350   -2.6580   -4.7380 c3        1 MOL     -0.146480
     99 C34        -1.8090   -0.4750   -3.6420 c3        1 MOL     -0.146480
    100 H41        -3.0910   -2.0540   -1.1640 hn        1 MOL      0.213329
    101 H42        -3.8180   -3.3220   -3.7490 h1        1 MOL      0.093944
    102 H43        -3.0830   -1.3740   -5.0880 hc        1 MOL      0.014657
    103 H44        -0.7480   -2.9450   -3.9400 hc        1 MOL      0.041552
    104 H45        -1.8620   -3.5310   -5.2240 hc        1 MOL      0.041552
    105 H46        -0.8580   -2.2950   -5.5970 hc        1 MOL      0.041552
    106 H47        -1.1460    0.0070   -4.3570 hc        1 MOL      0.041552
    107 H48        -2.4010    0.3490   -3.2440 hc        1 MOL      0.041552
    108 H49        -1.2290   -0.8260   -2.7900 hc        1 MOL      0.041552
    109 N10        -5.7200   -1.6870   -2.1820 n         1 MOL     -0.248806
    110 C35        -7.0970   -1.2490   -2.1520 c3        1 MOL      0.021749
    111 C36        -7.3320    0.2340   -1.7250 c         1 MOL      0.534462
    112 O17        -8.2520    0.9400   -2.1390 o         1 MOL     -0.531615
    113 C37        -7.8680   -2.2590   -1.3090 c3        1 MOL     -0.042382
    114 C38        -7.2140   -2.7650   -0.0710 c         1 MOL      0.477242
    115 N11        -7.9620   -3.5160    0.6550 n         1 MOL     -0.721883
    116 O18        -6.0960   -2.3940    0.2760 o         1 MOL     -0.449196
    117 H50        -5.3960   -2.2280   -1.4050 hn        1 MOL      0.121480
    118 H51        -7.5290   -1.2620   -3.1540 h1        1 MOL      0.056498
    119 H52        -8.0880   -3.1390   -1.9070 hc        1 MOL      0.040941
    120 H53        -8.8400   -1.8150   -1.1140 hc        1 MOL      0.040941
    121 H54        -8.7210   -4.0250    0.2170 hn        1 MOL      0.349167
    122 H55        -7.5060   -4.0210    1.4010 hn        1 MOL      0.349167
    123 N12        -6.3740    0.7430   -0.9670 n         1 MOL     -0.395336
    124 C39        -6.3050    2.0780   -0.2430 c3        1 MOL      0.114910
    125 C40        -4.8670    2.6040    0.1680 c         1 MOL      0.434955
    126 O19        -3.8990    2.0200   -0.2140 o         1 MOL     -0.453682
    127 C41        -7.0720    1.9050    1.0890 c3        1 MOL     -0.106537
    128 C42        -8.4200    1.1620    1.1240 ca        1 MOL     -0.118218
    129 C43        -9.5960    1.6580    0.4740 ca        1 MOL     -0.024535
    130 C44        -8.4260   -0.0830    1.7450 ca        1 MOL     -0.024535
    131 C45       -10.6940    0.8300    0.5870 ca        1 MOL     -0.368476
    132 C46        -9.5530   -0.9660    1.7220 ca        1 MOL     -0.368476
    133 C47       -10.7220   -0.4260    1.1320 ca        1 MOL      0.451240
    134 O20       -11.8620   -1.1200    1.2350 oh        1 MOL     -0.532585
    135 H56        -5.6510    0.1370   -0.6100 hn        1 MOL      0.241407
    136 H57        -6.7100    2.7240   -1.0140 h1        1 MOL      0.068246
    137 H58        -7.1540    2.8420    1.6290 hc        1 MOL      0.063652
    138 H59        -6.3810    1.3730    1.7340 hc        1 MOL      0.063652
    139 H60        -9.5030    2.5900   -0.0610 ha        1 MOL      0.113222
    140 H61        -7.5300   -0.4700    2.1980 ha        1 MOL      0.113222
    141 H62       -11.6130    1.1230    0.0930 ha        1 MOL      0.149700
    142 H63        -9.4550   -1.9320    2.1850 ha        1 MOL      0.149700
    143 H64       -11.5890   -2.0220    1.4450 ho        1 MOL      0.353692
    144 N13        -4.8820    3.7110    0.8680 n         1 MOL     -0.613709
    145 C48        -3.7440    4.3300    1.4660 c3        1 MOL      0.344003
    146 C49        -2.5430    4.7470    0.6540 c         1 MOL      0.229695
    147 O21        -1.9760    5.7730    0.9940 o         1 MOL     -0.532146
    148 C50        -3.3100    3.4290    2.6230 c3        1 MOL     -0.167861
    149 C51        -2.3440    4.0520    3.6200 c3        1 MOL     -0.418752
    150 C52        -2.1870    3.2700    4.8670 c         1 MOL      0.746645
    151 O22        -1.8680    2.0400    4.9550 o         1 MOL     -0.708423
    152 O23        -2.1860    3.8860    5.9350 o         1 MOL     -0.708423
    153 H65        -5.7840    4.1470    1.0270 hn        1 MOL      0.304796
    154 H66        -4.2310    5.2340    1.8430 h1        1 MOL      0.016396
    155 H67        -2.8780    2.5220    2.1820 hc        1 MOL      0.085381
    156 H68        -4.1690    3.0520    3.1840 hc        1 MOL      0.085381
    157 H69        -2.6860    5.0780    3.7850 hc        1 MOL      0.133522
    158 H70        -1.3330    4.1620    3.2360 hc        1 MOL      0.133522
    159 N14        -2.1280    4.1650   -0.4370 n         1 MOL      0.157953
    160 C53        -1.0000    4.5450   -1.2620 c3        1 MOL     -0.645971
    161 C54        -1.4740    5.6540   -2.3040 c         1 MOL      0.626335
    162 O24        -0.6690    6.3250   -2.9630 o         1 MOL     -0.552079
    163 C55        -0.4100    3.2740   -1.8670 c3        1 MOL      0.053651
    164 C56         0.1300    2.0660   -1.0280 c3        1 MOL      0.755582
    165 C57         1.0440    2.5190    0.1670 c         1 MOL      0.590658
    166 O25         0.5140    3.0190    1.1760 o         1 MOL     -0.714063
    167 O26         2.3100    2.3950    0.0700 o         1 MOL     -0.714063
    168 H71        -2.4450    3.2020   -0.5010 hn        1 MOL      0.072828
    169 H72        -0.2000    5.0020   -0.6770 h1        1 MOL      0.294819
    170 H73         0.4280    3.5710   -2.5020 hc        1 MOL     -0.015606
    171 H74        -1.0370    2.8820   -2.6710 hc        1 MOL     -0.015606
    172 H75         0.7670    1.4880   -1.7010 hc        1 MOL     -0.266534
    173 H76        -0.6880    1.4420   -0.6770 hc        1 MOL     -0.266534
    174 N15        -2.7980    5.7820   -2.4750 n         1 MOL     -0.296445
    175 C58        -3.4740    6.8410   -3.2550 c3        1 MOL      0.012244
    176 H77        -2.7450    7.3470   -3.8880 h1        1 MOL      0.032895
    177 H78        -4.2480    6.3950   -3.8790 h1        1 MOL      0.032895
    178 H79        -3.9250    7.5620   -2.5740 h1        1 MOL      0.032895
    179 H80        -3.3990    5.2840   -1.8370 hn        1 MOL      0.191601
    180 Ca1         4.5660    2.0190    1.2000 Ca        1 MOL      1.830729
    181 O27         4.9000    4.2860    2.5770 oh        1 MOL     -0.867163
    182 H81         4.8730    5.1330    2.1240 ho        1 MOL      0.416682
    183 H82         4.6550    4.4830    3.4780 ho        1 MOL      0.416682
    184 O28         2.5120    2.3020    3.0310 oh        1 MOL     -0.867163
    185 H83         2.1360    2.3820    3.9020 ho        1 MOL      0.416682
    186 H84         1.8070    2.5880    2.4440 ho        1 MOL      0.416682
    187 O29         6.0490    0.9170    3.0320 oh        1 MOL     -0.867163
    188 H85         5.8710    0.7690    3.9650 ho        1 MOL      0.416682
    189 H86         6.7900    0.3360    2.8450 ho        1 MOL      0.416682
@<TRIPOS>BOND
     1    1    2 1   
     2    1    4 1   
     3    1    5 1   
     4    1    6 1   
     5    2    3 2   
     6    2    7 1   
     7    7    8 1   
     8    7   15 1   
     9    8    9 1   
    10    8   11 1   
    11    8   16 1   
    12    9   10 2   
    13    9   19 1   
    14   11   12 1   
    15   11   17 1   
    16   11   18 1   
    17   12   13 1   
    18   12   14 1   
    19   19   20 1   
    20   19   27 1   
    21   20   21 1   
    22   20   23 1   
    23   20   28 1   
    24   21   22 2   
    25   21   38 1   
    26   23   24 1   
    27   23   25 1   
    28   23   29 1   
    29   24   26 1   
    30   24   30 1   
    31   24   31 1   
    32   25   32 1   
    33   25   33 1   
    34   25   34 1   
    35   26   35 1   
    36   26   36 1   
    37   26   37 1   
    38   38   39 1   
    39   38   46 1   
    40   39   40 1   
    41   39   42 1   
    42   39   47 1   
    43   40   41 2   
    44   40   50 1   
    45   42   43 1   
    46   42   48 1   
    47   42   49 1   
    48   43   44 1   
    49   43   45 1   
    50   50   51 1   
    51   50   54 1   
    52   51   52 1   
    53   51   55 1   
    54   51   56 1   
    55   52   53 2   
    56   52   57 1   
    57   57   58 1   
    58   57   65 1   
    59   58   59 1   
    60   58   61 1   
    61   58   66 1   
    62   59   60 2   
    63   59   69 1   
    64   61   62 1   
    65   61   67 1   
    66   61   68 1   
    67   62   63 1   
    68   62   64 1   
    69   69   70 1   
    70   69   73 1   
    71   70   71 1   
    72   70   74 1   
    73   70   75 1   
    74   71   72 2   
    75   71   76 1   
    76   76   77 1   
    77   76   85 1   
    78   77   78 1   
    79   77   80 1   
    80   77   86 1   
    81   78   79 2   
    82   78   93 1   
    83   80   81 1   
    84   80   87 1   
    85   80   88 1   
    86   81   82 1   
    87   81   89 1   
    88   81   90 1   
    89   82   83 1   
    90   82   84 2   
    91   83   91 1   
    92   83   92 1   
    93   93   94 1   
    94   93  100 1   
    95   94   95 1   
    96   94   97 1   
    97   94  101 1   
    98   95   96 2   
    99   95  109 1   
   100   97   98 1   
   101   97   99 1   
   102   97  102 1   
   103   98  103 1   
   104   98  104 1   
   105   98  105 1   
   106   99  106 1   
   107   99  107 1   
   108   99  108 1   
   109  109  110 1   
   110  109  117 1   
   111  110  111 1   
   112  110  113 1   
   113  110  118 1   
   114  111  112 2   
   115  111  123 1   
   116  113  114 1   
   117  113  119 1   
   118  113  120 1   
   119  114  115 1   
   120  114  116 2   
   121  115  121 1   
   122  115  122 1   
   123  123  124 1   
   124  123  135 1   
   125  124  125 1   
   126  124  127 1   
   127  124  136 1   
   128  125  126 2   
   129  125  144 1   
   130  127  128 1   
   131  127  137 1   
   132  127  138 1   
   133  128  129 ar  
   134  128  130 ar  
   135  129  131 ar  
   136  129  139 1   
   137  130  132 ar  
   138  130  140 1   
   139  131  133 ar  
   140  131  141 1   
   141  132  133 ar  
   142  132  142 1   
   143  133  134 1   
   144  134  143 1   
   145  144  145 1   
   146  144  153 1   
   147  145  146 1   
   148  145  148 1   
   149  145  154 1   
   150  146  147 2   
   151  146  159 1   
   152  148  149 1   
   153  148  155 1   
   154  148  156 1   
   155  149  150 1   
   156  149  157 1   
   157  149  158 1   
   158  150  151 1   
   159  150  152 1   
   160  159  160 1   
   161  159  168 1   
   162  160  161 1   
   163  160  163 1   
   164  160  169 1   
   165  161  162 2   
   166  161  174 1   
   167  163  164 1   
   168  163  170 1   
   169  163  171 1   
   170  164  165 1   
   171  164  172 1   
   172  164  173 1   
   173  165  166 1   
   174  165  167 1   
   175  174  175 1   
   176  174  179 1   
   177  175  176 1   
   178  175  177 1   
   179  175  178 1   
   180  181  182 1   
   181  181  183 1   
   182  184  185 1   
   183  184  186 1   
   184  187  188 1   
   185  187  189 1   
@<TRIPOS>SUBSTRUCTURE
     1 MOL         1 TEMP              0 ****  ****    0 ROOT
