@<TRIPOS>MOLECULE
MOL
  181   177     1     0     0
SMALL
resp


@<TRIPOS>ATOM
      1 C1        -10.0000   -6.0290   -3.5470 c3        1 MOL     -0.182724
      2 C2         -9.4390   -5.9160   -2.1530 c         1 MOL      0.703205
      3 O1         -9.1650   -6.9460   -1.5910 o         1 MOL     -0.609726
      4 H1        -10.1520   -5.0320   -3.9590 hc        1 MOL      0.034379
      5 H2         -9.3010   -6.5790   -4.1770 hc        1 MOL      0.034379
      6 H3        -10.9540   -6.5570   -3.5140 hc        1 MOL      0.034379
      7 N1         -9.3590   -4.7920   -1.4930 n         1 MOL     -0.499353
      8 C3         -9.8310   -3.4800   -1.8660 c3        1 MOL      0.142047
      9 C4        -10.2880   -2.6490   -0.6810 c         1 MOL      0.306077
     10 O2         -9.9700   -2.9410    0.4680 o         1 MOL     -0.345985
     11 C5         -8.7520   -2.6410   -2.6390 c3        1 MOL     -0.170640
     12 C6         -7.6150   -2.1750   -1.7340 c         1 MOL      0.649702
     13 O3         -7.4400   -0.9920   -1.5600 o         1 MOL     -0.681243
     14 O4         -6.7750   -2.9400   -1.2530 o         1 MOL     -0.681243
     15 H4         -8.9680   -4.9520   -0.5800 hn        1 MOL      0.316079
     16 H5        -10.6560   -3.5380   -2.5830 h1        1 MOL      0.029343
     17 H6         -9.1920   -1.7640   -3.1080 hc        1 MOL      0.028436
     18 H7         -8.2910   -3.2230   -3.4460 hc        1 MOL      0.028436
     19 N2        -11.0930   -1.6120   -0.8930 n         1 MOL     -0.431261
     20 C7        -11.7280   -0.8260    0.1730 c3        1 MOL      0.109557
     21 C8        -10.9440   -0.4010    1.4000 c         1 MOL      0.434210
     22 O5        -11.6090   -0.2380    2.4340 o         1 MOL     -0.527709
     23 C9        -13.0590   -1.5350    0.4900 c3        1 MOL     -0.299143
     24 H8        -11.3200   -1.2050   -1.7840 hn        1 MOL      0.307590
     25 H9        -11.9380    0.0840   -0.4010 h1        1 MOL      0.017048
     26 H10       -13.6860   -1.0490    1.2390 hc        1 MOL      0.086955
     27 H11       -13.6960   -1.6560   -0.3910 hc        1 MOL      0.086955
     28 H12       -12.7890   -2.5160    0.8960 hc        1 MOL      0.086955
     29 N3         -9.7040   -0.1440    1.2340 n         1 MOL     -0.055079
     30 C10        -8.9030    0.5200    2.2290 c3        1 MOL     -0.325703
     31 C11        -7.7860    1.3800    1.5860 c         1 MOL      0.546563
     32 O6         -7.1600    0.9600    0.5990 o         1 MOL     -0.532408
     33 C12        -8.3930   -0.3840    3.3880 c3        1 MOL      0.072063
     34 C13        -7.6520   -1.6800    2.9270 c         1 MOL      0.690362
     35 O7         -7.0180   -1.6380    1.8370 o         1 MOL     -0.693393
     36 O8         -7.6460   -2.6700    3.6530 o         1 MOL     -0.693393
     37 H13        -9.2220   -0.4440    0.3940 hn        1 MOL      0.115838
     38 H14        -9.4880    1.2990    2.7090 h1        1 MOL      0.060791
     39 H15        -9.1870   -0.7270    4.0460 hc        1 MOL     -0.005066
     40 H16        -7.6490    0.1240    4.0100 hc        1 MOL     -0.005066
     41 N4         -7.3540    2.4640    2.1680 n         1 MOL     -0.287488
     42 C14        -6.5620    3.5880    1.6090 c3        1 MOL     -0.334700
     43 C15        -5.1700    3.0630    1.1220 c         1 MOL      0.589132
     44 O9         -4.6110    2.0920    1.6120 o         1 MOL     -0.451104
     45 H17        -7.9450    2.7540    2.9360 hn        1 MOL      0.281877
     46 H18        -6.4890    4.2840    2.4360 h1        1 MOL      0.136596
     47 H19        -6.9660    4.0240    0.6980 h1        1 MOL      0.136596
     48 N5         -4.6130    3.7420    0.0870 n         1 MOL     -0.523820
     49 C16        -3.3640    3.3770   -0.5490 c3        1 MOL      0.031001
     50 C17        -2.2650    4.4130   -0.4730 c         1 MOL      0.640978
     51 O10        -1.0400    4.1080   -0.6910 o         1 MOL     -0.473943
     52 C18        -3.7320    3.1470   -1.9820 c3        1 MOL     -0.395236
     53 C19        -4.9160    2.1790   -2.2360 c         1 MOL      0.796269
     54 N6         -5.9690    2.5500   -2.9440 n         1 MOL     -0.753284
     55 O11        -4.7960    1.0320   -1.8810 o         1 MOL     -0.642468
     56 H20        -5.0000    4.6380   -0.1500 hn        1 MOL      0.273290
     57 H21        -3.0740    2.4720   -0.0230 h1        1 MOL      0.119161
     58 H22        -2.9280    2.6830   -2.5580 hc        1 MOL      0.103525
     59 H23        -4.0060    4.1210   -2.3930 hc        1 MOL      0.103525
     60 H24        -6.0530    3.5070   -3.2490 hn        1 MOL      0.353942
     61 H25        -6.6630    1.8450   -3.1270 hn        1 MOL      0.353942
     62 N7         -2.5470    5.6810   -0.2230 n         1 MOL     -0.445523
     63 C20        -1.5380    6.7340   -0.3080 c3        1 MOL     -0.033936
     64 C21        -0.4500    6.5950    0.7790 c         1 MOL      0.503310
     65 O12        -0.7780    6.5990    2.0030 o         1 MOL     -0.541748
     66 H26        -3.5010    5.9960   -0.1290 hn        1 MOL      0.277806
     67 H27        -1.9910    7.7280   -0.3520 h1        1 MOL      0.064730
     68 H28        -1.0370    6.6330   -1.2690 h1        1 MOL      0.064730
     69 N8          0.8510    6.4680    0.4080 n         1 MOL     -0.259824
     70 C22         1.4710    6.6940   -0.8680 c3        1 MOL     -0.475765
     71 C23         2.2630    5.4490   -1.1960 c         1 MOL      0.592398
     72 O13         2.1430    4.8790   -2.3110 o         1 MOL     -0.533454
     73 C24         2.3170    7.9420   -0.9890 c3        1 MOL      0.401433
     74 C25         1.4260    9.1980   -1.0660 c3        1 MOL     -0.356259
     75 O14         3.1020    8.2030    0.0540 oh        1 MOL     -0.595272
     76 H29         1.4720    6.4550    1.2070 hn        1 MOL      0.262293
     77 H30         0.6810    6.7130   -1.6230 h1        1 MOL      0.184273
     78 H31         2.9730    7.8210   -1.8510 h1        1 MOL      0.059113
     79 H32         2.6350    8.5940    0.7930 ho        1 MOL      0.399802
     80 H33         0.7500    9.2140   -1.9200 hc        1 MOL      0.082651
     81 H34         0.7980    9.2290   -0.1750 hc        1 MOL      0.082651
     82 H35         2.0580   10.0770   -1.1500 hc        1 MOL      0.082651
     83 N9          3.1080    4.8650   -0.2450 n         1 MOL     -0.231210
     84 C26         4.1080    3.7840   -0.4910 c3        1 MOL     -0.054957
     85 C27         4.4490    2.9070    0.7590 c         1 MOL      0.391170
     86 O15         4.2360    3.2630    1.9150 o         1 MOL     -0.511776
     87 C28         5.3780    4.4790   -1.0030 c3        1 MOL      0.125976
     88 C29         6.4110    3.4830   -1.6490 c3        1 MOL      0.150198
     89 C30         6.0250    5.3170    0.1660 c3        1 MOL     -0.374248
     90 C31         7.5780    4.1450   -2.3750 c3        1 MOL     -0.237623
     91 H36         3.2750    5.2550    0.6720 hn        1 MOL      0.251937
     92 H37         3.7020    3.1160   -1.2370 h1        1 MOL      0.072319
     93 H38         5.0450    5.1750   -1.7670 hc        1 MOL     -0.009562
     94 H39         5.7760    2.8530   -2.2780 hc        1 MOL     -0.011171
     95 H40         6.8170    2.9280   -0.8000 hc        1 MOL     -0.011171
     96 H41         6.7430    4.7540    0.7570 hc        1 MOL      0.078988
     97 H42         6.6650    6.0760   -0.2780 hc        1 MOL      0.078988
     98 H43         5.2780    5.8670    0.7290 hc        1 MOL      0.078988
     99 H44         8.1110    3.4590   -3.0370 hc        1 MOL      0.044304
    100 H45         7.2120    4.9870   -2.9610 hc        1 MOL      0.044304
    101 H46         8.1990    4.6260   -1.6240 hc        1 MOL      0.044304
    102 N10         4.7330    1.5690    0.6580 n         1 MOL     -0.345481
    103 C32         4.6280    0.6960   -0.4770 c3        1 MOL      0.105795
    104 C33         5.9580   -0.1650   -0.7510 c         1 MOL      0.251836
    105 O16         6.1660   -0.7160   -1.8580 o         1 MOL     -0.522332
    106 C34         3.3430   -0.1580   -0.3110 c3        1 MOL     -0.112558
    107 C35         2.1400    0.6080    0.2220 c         1 MOL      0.654518
    108 O17         1.5060    0.1580    1.1860 o         1 MOL     -0.673018
    109 O18         1.7220    1.5730   -0.3830 o         1 MOL     -0.673018
    110 H47         4.8560    1.1000    1.5470 hn        1 MOL      0.313938
    111 H48         4.4740    1.2210   -1.4180 h1        1 MOL      0.072603
    112 H49         3.5290   -1.0230    0.3320 hc        1 MOL      0.028105
    113 H50         3.0820   -0.5430   -1.2950 hc        1 MOL      0.028105
    114 N11         6.8330   -0.1260    0.2320 n         1 MOL     -0.192897
    115 C36         8.1330   -0.7670    0.2530 c3        1 MOL      0.261299
    116 C37         8.3770   -1.4100    1.5870 c         1 MOL      0.302560
    117 O19         8.2160   -0.7280    2.5900 o         1 MOL     -0.501284
    118 C38         9.1330    0.3510   -0.0630 c3        1 MOL     -0.174579
    119 C39        10.5310   -0.1540   -0.3220 ca        1 MOL      0.057502
    120 C40        11.5750   -0.2630    0.6080 ca        1 MOL     -0.150408
    121 C41        10.8120   -0.5590   -1.6470 ca        1 MOL     -0.150408
    122 C42        12.8400   -0.7550    0.3580 ca        1 MOL     -0.150467
    123 C43        12.1010   -1.1310   -1.9730 ca        1 MOL     -0.150467
    124 C44        13.0650   -1.1970   -0.9300 ca        1 MOL     -0.069407
    125 H51         6.5900    0.3970    1.0510 hn        1 MOL      0.155319
    126 H52         8.1370   -1.5720   -0.4830 h1        1 MOL     -0.033116
    127 H53         9.1010    1.0260    0.7970 hc        1 MOL      0.071027
    128 H54         8.7280    0.8500   -0.9490 hc        1 MOL      0.071027
    129 H55        11.3050   -0.0440    1.6240 ha        1 MOL      0.131947
    130 H56        10.1090   -0.3070   -2.4340 ha        1 MOL      0.131947
    131 H57        13.5390   -0.7600    1.1800 ha        1 MOL      0.118487
    132 H58        12.3110   -1.3350   -3.0200 ha        1 MOL      0.118487
    133 H59        14.0210   -1.6350   -1.1730 ha        1 MOL      0.074520
    134 N12         8.9330   -2.5990    1.6170 n         1 MOL      0.028395
    135 C45         9.3830   -3.5070    0.5420 c3        1 MOL     -0.010530
    136 C46         8.2660   -4.2190   -0.2080 c         1 MOL      0.548247
    137 O20         8.5710   -4.6370   -1.3090 o         1 MOL     -0.594744
    138 C47        10.3560   -4.5170    1.1490 c3        1 MOL     -0.031172
    139 C48        10.9350   -3.6460    2.3410 c3        1 MOL      0.055226
    140 C49         9.5450   -3.1140    2.8160 c3        1 MOL     -0.295580
    141 H60         9.9900   -2.9830   -0.2060 h1        1 MOL      0.078193
    142 H61         9.7620   -5.3600    1.5260 hc        1 MOL      0.028326
    143 H62        11.1780   -4.8050    0.5040 hc        1 MOL      0.028326
    144 H63        11.5430   -4.2200    3.0480 hc        1 MOL      0.004381
    145 H64        11.5430   -2.8230    1.9610 hc        1 MOL      0.004381
    146 H65         8.9170   -3.8710    3.2870 h1        1 MOL      0.114024
    147 H66         9.6890   -2.2680    3.4950 h1        1 MOL      0.114024
    148 N13         7.0480   -4.3310    0.3380 n         1 MOL     -0.283002
    149 C50         5.7980   -4.9430   -0.3010 c3        1 MOL      0.066479
    150 C51         6.1810   -6.4550   -0.5320 c         1 MOL      0.387029
    151 O21         6.3340   -7.2090    0.4280 o         1 MOL     -0.560262
    152 C52         4.6740   -4.8820    0.6600 c3        1 MOL     -0.134364
    153 C53         4.1650   -3.4670    0.8030 c3        1 MOL     -0.189142
    154 C54         3.1470   -3.3580    1.9540 c         1 MOL      0.732799
    155 O22         3.5360   -2.8760    3.0440 o         1 MOL     -0.727361
    156 O23         1.9980   -3.6850    1.8130 o         1 MOL     -0.727361
    157 H67         6.9540   -4.1610    1.3260 hn        1 MOL      0.242250
    158 H68         5.5780   -4.3980   -1.2200 h1        1 MOL      0.127136
    159 H69         4.9500   -5.2790    1.6320 hc        1 MOL      0.068269
    160 H70         3.8590   -5.4250    0.1780 hc        1 MOL      0.068269
    161 H71         3.7270   -3.1550   -0.1340 hc        1 MOL      0.003751
    162 H72         5.0230   -2.7970    0.9310 hc        1 MOL      0.003751
    163 N14         6.4000   -6.9230   -1.7430 n         1 MOL     -0.315754
    164 C55         6.6530   -6.1520   -2.9750 c3        1 MOL     -0.131145
    165 H73         6.0360   -5.2530   -2.9740 h1        1 MOL      0.074394
    166 H74         7.7050   -5.8690   -3.0180 h1        1 MOL      0.074394
    167 H75         6.4050   -6.7610   -3.8440 h1        1 MOL      0.074394
    168 H76         6.5610   -7.9210   -1.7710 hn        1 MOL      0.264050
    169 Ca1        -5.2750   -0.9220   -0.0790 Ca        1 MOL      1.714148
    170 O24        -3.6840   -2.3290   -2.3440 oh        1 MOL     -0.764007
    171 H77        -2.8770   -2.5000   -1.8570 ho        1 MOL      0.390801
    172 H78        -3.3850   -1.9040   -3.1510 ho        1 MOL      0.390801
    173 O25        -4.0120   -3.3600    0.3600 oh        1 MOL     -0.764007
    174 H79        -3.0850   -3.3760    0.5630 ho        1 MOL      0.390801
    175 H80        -4.3950   -4.0480    0.9070 ho        1 MOL      0.390801
    176 O26        -4.1180   -1.1680    2.2920 oh        1 MOL     -0.764007
    177 H81        -4.3060   -0.9700    3.2010 ho        1 MOL      0.390801
    178 H82        -3.5340   -1.9250    2.3210 ho        1 MOL      0.390801
    179 O27        -2.6470   -0.2590    0.0530 oh        1 MOL     -0.764007
    180 H83        -2.1510    0.1660    0.7520 ho        1 MOL      0.390801
    181 H84        -2.0690   -0.2370   -0.7060 ho        1 MOL      0.390801
@<TRIPOS>BOND
     1    1    2 1   
     2    1    4 1   
     3    1    5 1   
     4    1    6 1   
     5    2    3 2   
     6    2    7 1   
     7    7    8 1   
     8    7   15 1   
     9    8    9 1   
    10    8   11 1   
    11    8   16 1   
    12    9   10 2   
    13    9   19 1   
    14   11   12 1   
    15   11   17 1   
    16   11   18 1   
    17   12   13 1   
    18   12   14 1   
    19   19   20 1   
    20   19   24 1   
    21   20   21 1   
    22   20   23 1   
    23   20   25 1   
    24   21   22 2   
    25   21   29 1   
    26   23   26 1   
    27   23   27 1   
    28   23   28 1   
    29   29   30 1   
    30   29   37 1   
    31   30   31 1   
    32   30   33 1   
    33   30   38 1   
    34   31   32 2   
    35   31   41 1   
    36   33   34 1   
    37   33   39 1   
    38   33   40 1   
    39   34   35 1   
    40   34   36 1   
    41   41   42 1   
    42   41   45 1   
    43   42   43 1   
    44   42   46 1   
    45   42   47 1   
    46   43   44 2   
    47   43   48 1   
    48   48   49 1   
    49   48   56 1   
    50   49   50 1   
    51   49   52 1   
    52   49   57 1   
    53   50   51 2   
    54   50   62 1   
    55   52   53 1   
    56   52   58 1   
    57   52   59 1   
    58   53   54 1   
    59   53   55 2   
    60   54   60 1   
    61   54   61 1   
    62   62   63 1   
    63   62   66 1   
    64   63   64 1   
    65   63   67 1   
    66   63   68 1   
    67   64   65 2   
    68   64   69 1   
    69   69   70 1   
    70   69   76 1   
    71   70   71 1   
    72   70   73 1   
    73   70   77 1   
    74   71   72 2   
    75   71   83 1   
    76   73   74 1   
    77   73   75 1   
    78   73   78 1   
    79   74   80 1   
    80   74   81 1   
    81   74   82 1   
    82   75   79 1   
    83   83   84 1   
    84   83   91 1   
    85   84   85 1   
    86   84   87 1   
    87   84   92 1   
    88   85   86 2   
    89   85  102 1   
    90   87   88 1   
    91   87   89 1   
    92   87   93 1   
    93   88   90 1   
    94   88   94 1   
    95   88   95 1   
    96   89   96 1   
    97   89   97 1   
    98   89   98 1   
    99   90   99 1   
   100   90  100 1   
   101   90  101 1   
   102  102  103 1   
   103  102  110 1   
   104  103  104 1   
   105  103  106 1   
   106  103  111 1   
   107  104  105 2   
   108  104  114 1   
   109  106  107 1   
   110  106  112 1   
   111  106  113 1   
   112  107  108 1   
   113  107  109 1   
   114  114  115 1   
   115  114  125 1   
   116  115  116 1   
   117  115  118 1   
   118  115  126 1   
   119  116  117 2   
   120  116  134 1   
   121  118  119 1   
   122  118  127 1   
   123  118  128 1   
   124  119  120 ar  
   125  119  121 ar  
   126  120  122 ar  
   127  120  129 1   
   128  121  123 ar  
   129  121  130 1   
   130  122  124 ar  
   131  122  131 1   
   132  123  124 ar  
   133  123  132 1   
   134  124  133 1   
   135  134  135 1   
   136  134  140 1   
   137  135  136 1   
   138  135  138 1   
   139  135  141 1   
   140  136  137 2   
   141  136  148 1   
   142  138  139 1   
   143  138  142 1   
   144  138  143 1   
   145  139  140 1   
   146  139  144 1   
   147  139  145 1   
   148  140  146 1   
   149  140  147 1   
   150  148  149 1   
   151  148  157 1   
   152  149  150 1   
   153  149  152 1   
   154  149  158 1   
   155  150  151 2   
   156  150  163 1   
   157  152  153 1   
   158  152  159 1   
   159  152  160 1   
   160  153  154 1   
   161  153  161 1   
   162  153  162 1   
   163  154  155 1   
   164  154  156 1   
   165  163  164 1   
   166  163  168 1   
   167  164  165 1   
   168  164  166 1   
   169  164  167 1   
   170  170  171 1   
   171  170  172 1   
   172  173  174 1   
   173  173  175 1   
   174  176  177 1   
   175  176  178 1   
   176  179  180 1   
   177  179  181 1   
@<TRIPOS>SUBSTRUCTURE
     1 MOL         1 TEMP              0 ****  ****    0 ROOT
