@<TRIPOS>MOLECULE
MOL
  189   185     1     0     0
SMALL
resp


@<TRIPOS>ATOM
      1 C1          4.5830    4.3800   -3.1860 c3        1 MOL     -0.493119
      2 C2          5.3020    3.5280   -2.1030 c         1 MOL      0.702796
      3 O1          4.8280    3.2170   -0.9920 o         1 MOL     -0.576861
      4 H1          3.5950    3.9630   -3.3790 hc        1 MOL      0.128071
      5 H2          4.4810    5.4060   -2.8330 hc        1 MOL      0.128071
      6 H3          5.1670    4.3680   -4.1060 hc        1 MOL      0.128071
      7 N1          6.4820    3.0690   -2.4800 n         1 MOL     -0.620930
      8 C3          7.2070    2.0060   -1.8310 c3        1 MOL      0.407351
      9 C4          6.3190    0.7330   -1.5120 c         1 MOL      0.105223
     10 O2          5.9590    0.5100   -0.3220 o         1 MOL     -0.251134
     11 C5          8.1530    2.4950   -0.6780 c3        1 MOL     -0.294207
     12 C6          7.5040    3.4820    0.3380 c         1 MOL      0.749897
     13 O3          6.7100    3.0170    1.1820 o         1 MOL     -0.726014
     14 O4          7.7640    4.7090    0.1740 o         1 MOL     -0.726014
     15 H4          6.8270    3.6080   -3.2590 hn        1 MOL      0.315892
     16 H5          7.9160    1.6880   -2.5960 h1        1 MOL     -0.025441
     17 H6          8.9890    3.0070   -1.1560 hc        1 MOL      0.043956
     18 H7          8.5230    1.6170   -0.1480 hc        1 MOL      0.043956
     19 N2          6.0480   -0.0120   -2.5820 n         1 MOL     -0.374199
     20 C7          5.1410   -1.2110   -2.7230 c3        1 MOL      0.063957
     21 C8          5.6110   -2.5190   -2.0180 c         1 MOL      0.367166
     22 O5          5.6750   -3.5280   -2.6780 o         1 MOL     -0.520162
     23 C9          3.6940   -0.8170   -2.5790 c3        1 MOL      0.231258
     24 C10         2.7130   -1.9810   -2.9250 c3        1 MOL      0.058800
     25 C11         3.3070    0.4880   -3.3600 c3        1 MOL     -0.186366
     26 C12         2.6980   -2.2870   -4.4210 c3        1 MOL     -0.413383
     27 H8          6.4030    0.3890   -3.4390 hn        1 MOL      0.276957
     28 H9          5.3550   -1.3910   -3.7760 h1        1 MOL      0.032845
     29 H10         3.5670   -0.5440   -1.5280 hc        1 MOL     -0.095072
     30 H11         1.7110   -1.6900   -2.6010 hc        1 MOL      0.068492
     31 H12         3.0020   -2.8800   -2.3670 hc        1 MOL      0.068492
     32 H13         2.2260    0.6790   -3.3670 hc        1 MOL      0.025366
     33 H14         3.8770    1.2850   -2.8730 hc        1 MOL      0.025366
     34 H15         3.7020    0.4490   -4.3690 hc        1 MOL      0.025366
     35 H16         3.5260   -2.9370   -4.6820 hc        1 MOL      0.083985
     36 H17         1.7840   -2.8870   -4.5350 hc        1 MOL      0.083985
     37 H18         2.4780   -1.4060   -5.0190 hc        1 MOL      0.083985
     38 N3          6.0410   -2.4440   -0.7760 n         1 MOL     -0.097429
     39 C13         6.6700   -3.5330   -0.1260 c3        1 MOL      0.049602
     40 C14         5.8260   -4.7770   -0.0610 c         1 MOL      0.559007
     41 O6          6.3230   -5.8830   -0.3540 o         1 MOL     -0.597854
     42 C15         7.1350   -3.3030    1.2750 c3        1 MOL     -0.310401
     43 C16         8.4110   -2.3750    1.3330 c         1 MOL      0.730622
     44 O7          9.4310   -2.6930    0.6330 o         1 MOL     -0.698752
     45 O8          8.4310   -1.3840    2.1040 o         1 MOL     -0.698752
     46 H19         6.0970   -1.5060   -0.4110 hn        1 MOL      0.198541
     47 H20         7.5910   -3.7830   -0.6530 h1        1 MOL      0.030538
     48 H21         7.3200   -4.2810    1.7240 hc        1 MOL      0.081946
     49 H22         6.3160   -2.7620    1.7580 hc        1 MOL      0.081946
     50 N4          4.5280   -4.8010    0.2350 n         1 MOL     -0.554604
     51 C17         3.7060   -3.7110    0.8440 c3        1 MOL      0.146230
     52 C18         2.6290   -4.2060    1.8090 c         1 MOL      0.576715
     53 O9          2.2990   -5.4010    1.7810 o         1 MOL     -0.581763
     54 H23         4.1250   -5.7160    0.1100 hn        1 MOL      0.315924
     55 H24         3.2350   -3.1120    0.0670 h1        1 MOL      0.045940
     56 H25         4.2740   -2.8920    1.3060 h1        1 MOL      0.045940
     57 N5          1.9290   -3.3420    2.5880 n         1 MOL     -0.593385
     58 C19         2.1400   -1.9140    2.7710 c3        1 MOL      0.361268
     59 C20         2.2810   -1.0720    1.4500 c         1 MOL     -0.007791
     60 O10         3.4100   -0.6750    1.1680 o         1 MOL     -0.580739
     61 C21         3.2210   -1.7370    3.8910 c3        1 MOL     -0.297105
     62 C22         3.6100   -0.3180    4.2250 c         1 MOL      0.810507
     63 O11         4.3190   -0.1420    5.2340 o         1 MOL     -0.731997
     64 O12         3.2060    0.6370    3.5620 o         1 MOL     -0.731997
     65 H26         1.1730   -3.7540    3.0950 hn        1 MOL      0.287908
     66 H27         1.2210   -1.5530    3.2140 h1        1 MOL      0.075411
     67 H28         4.1040   -2.3040    3.6030 hc        1 MOL      0.066883
     68 H29         2.7410   -2.1460    4.7800 hc        1 MOL      0.066883
     69 N6          1.1840   -0.7680    0.7040 n         1 MOL     -0.036814
     70 C23        -0.1580   -1.3660    0.8570 c3        1 MOL     -0.081815
     71 C24        -0.3670   -2.6280    0.0350 c         1 MOL      0.540033
     72 O13         0.5420   -3.1030   -0.6760 o         1 MOL     -0.525567
     73 H30         1.2600    0.0270    0.0860 hn        1 MOL      0.160751
     74 H31        -0.8360   -0.5500    0.6090 h1        1 MOL      0.051834
     75 H32        -0.3260   -1.6570    1.8910 h1        1 MOL      0.051834
     76 N7         -1.5750   -3.2170    0.1750 n         1 MOL     -0.419657
     77 C25        -2.1920   -4.4490   -0.4730 c3        1 MOL     -0.019190
     78 C26        -2.6630   -4.1410   -1.9180 c         1 MOL      0.388656
     79 O14        -2.7270   -5.0640   -2.7480 o         1 MOL     -0.486848
     80 C27        -3.2810   -4.9250    0.4470 c3        1 MOL     -0.098063
     81 C28        -2.7310   -5.3490    1.8250 c3        1 MOL     -0.058012
     82 C29        -3.7930   -5.8960    2.8070 c         1 MOL      0.673844
     83 N8         -3.3750   -6.3560    4.0020 n         1 MOL     -0.813621
     84 O15        -4.9480   -5.8360    2.5590 o         1 MOL     -0.539845
     85 H33        -2.2540   -2.5950    0.5980 hn        1 MOL      0.275931
     86 H34        -1.4300   -5.2270   -0.5530 h1        1 MOL      0.167649
     87 H35        -3.7280   -5.8360    0.0450 hc        1 MOL      0.061377
     88 H36        -4.0650   -4.2190    0.7240 hc        1 MOL      0.061377
     89 H37        -2.2110   -4.5610    2.3500 hc        1 MOL      0.023197
     90 H38        -2.0560   -6.1830    1.6220 hc        1 MOL      0.023197
     91 H39        -2.4250   -6.6420    4.2030 hn        1 MOL      0.349825
     92 H40        -4.0460   -6.6980    4.6720 hn        1 MOL      0.349825
     93 N9         -2.8560   -2.8120   -2.2090 n         1 MOL     -0.145267
     94 C30        -3.3360   -2.2550   -3.4320 c3        1 MOL     -0.064272
     95 C31        -4.7150   -1.5880   -3.3790 c         1 MOL      0.715255
     96 O16        -5.2630   -1.2850   -4.4490 o         1 MOL     -0.588011
     97 C32        -2.3960   -1.1770   -4.1040 c3        1 MOL      0.089316
     98 C33        -1.0800   -1.9080   -4.3890 c3        1 MOL     -0.155433
     99 C34        -2.0860    0.0310   -3.2250 c3        1 MOL     -0.155433
    100 H41        -2.5660   -2.2100   -1.4460 hn        1 MOL      0.111986
    101 H42        -3.4870   -3.0270   -4.1950 h1        1 MOL      0.078958
    102 H43        -2.8870   -0.8460   -5.0200 hc        1 MOL      0.015416
    103 H44        -0.4280   -1.2140   -4.9350 hc        1 MOL      0.041125
    104 H45        -0.5560   -2.1340   -3.4630 hc        1 MOL      0.041125
    105 H46        -1.2630   -2.7620   -5.0280 hc        1 MOL      0.041125
    106 H47        -2.9580    0.5600   -2.8510 hc        1 MOL      0.041125
    107 H48        -1.4350   -0.2890   -2.4080 hc        1 MOL      0.041125
    108 H49        -1.4230    0.6940   -3.7790 hc        1 MOL      0.041125
    109 N10        -5.3440   -1.3160   -2.2140 n         1 MOL     -0.654943
    110 C35        -6.7330   -0.8900   -2.1130 c3        1 MOL      0.117618
    111 C36        -6.8810    0.4260   -1.3150 c         1 MOL      0.610831
    112 O17        -7.8200    1.0690   -1.5890 o         1 MOL     -0.595964
    113 C37        -7.5120   -2.0130   -1.4320 c3        1 MOL     -0.337100
    114 C38        -7.4620   -3.2490   -2.3490 c         1 MOL      0.601265
    115 N11        -7.8730   -3.1880   -3.6580 n         1 MOL     -0.823088
    116 O18        -6.9020   -4.2390   -1.8280 o         1 MOL     -0.536371
    117 H50        -4.7900   -1.5040   -1.3820 hn        1 MOL      0.281707
    118 H51        -7.1400   -0.8730   -3.1160 h1        1 MOL      0.074538
    119 H52        -8.5260   -1.7040   -1.1830 hc        1 MOL      0.134337
    120 H53        -6.9670   -2.3380   -0.5410 hc        1 MOL      0.134337
    121 H54        -8.3130   -2.3360   -3.9730 hn        1 MOL      0.397714
    122 H55        -7.6040   -3.9990   -4.1960 hn        1 MOL      0.397714
    123 N12        -6.0430    0.7780   -0.3690 n         1 MOL     -0.386331
    124 C39        -6.1340    1.9650    0.5260 c3        1 MOL      0.328622
    125 C40        -4.7770    2.7090    0.5420 c         1 MOL      0.254978
    126 O19        -3.6690    2.1560    0.3180 o         1 MOL     -0.469900
    127 C41        -6.6580    1.5250    1.9400 c3        1 MOL     -0.303699
    128 C42        -8.0100    0.8150    1.9290 ca        1 MOL      0.027706
    129 C43        -9.1800    1.5860    1.9330 ca        1 MOL     -0.033268
    130 C44        -8.0490   -0.5540    2.0130 ca        1 MOL     -0.033268
    131 C45       -10.4230    1.0010    2.0450 ca        1 MOL     -0.375271
    132 C46        -9.3420   -1.1410    2.1130 ca        1 MOL     -0.375271
    133 C47       -10.5250   -0.4160    2.1560 ca        1 MOL      0.422863
    134 O20       -11.7710   -0.9910    2.1610 oh        1 MOL     -0.513553
    135 H56        -5.2790    0.1220   -0.2220 hn        1 MOL      0.231661
    136 H57        -6.8680    2.6150    0.0560 h1        1 MOL      0.007650
    137 H58        -6.6610    2.3800    2.6190 hc        1 MOL      0.133229
    138 H59        -5.8760    0.8570    2.3160 hc        1 MOL      0.133229
    139 H60        -9.1590    2.6640    1.9630 ha        1 MOL      0.101878
    140 H61        -7.1150   -1.1040    1.9660 ha        1 MOL      0.101878
    141 H62       -11.2890    1.6390    1.9750 ha        1 MOL      0.161476
    142 H63        -9.4480   -2.2150    2.1460 ha        1 MOL      0.161476
    143 H64       -12.4420   -0.3000    2.2060 ho        1 MOL      0.359094
    144 N13        -4.8690    4.0100    0.9220 n         1 MOL     -0.508715
    145 C48        -3.8130    4.9490    1.3150 c3        1 MOL      0.030795
    146 C49        -2.7420    5.3130    0.2840 c         1 MOL      0.344872
    147 O21        -2.2660    6.4210    0.3470 o         1 MOL     -0.527966
    148 C50        -3.0350    4.4050    2.5350 c3        1 MOL      0.153998
    149 C51        -3.9940    3.8390    3.6100 c3        1 MOL     -0.256884
    150 C52        -3.2310    3.5530    4.9000 c         1 MOL      0.744898
    151 O22        -3.0970    4.5150    5.6710 o         1 MOL     -0.734705
    152 O23        -2.9250    2.3890    5.1520 o         1 MOL     -0.734705
    153 H65        -5.8040    4.1980    1.2280 hn        1 MOL      0.311479
    154 H66        -4.2710    5.8740    1.6340 h1        1 MOL      0.076415
    155 H67        -2.5500    5.2340    3.0540 hc        1 MOL      0.023001
    156 H68        -2.2170    3.7160    2.3050 hc        1 MOL      0.023001
    157 H69        -4.4790    2.9360    3.2400 hc        1 MOL      0.006358
    158 H70        -4.8350    4.5170    3.7320 hc        1 MOL      0.006358
    159 N14        -2.2520    4.4130   -0.5440 n         1 MOL     -0.013868
    160 C53        -1.1300    4.6930   -1.4540 c3        1 MOL     -0.389067
    161 C54        -1.4410    5.4970   -2.6990 c         1 MOL      0.647518
    162 O24        -0.5480    6.0510   -3.2410 o         1 MOL     -0.546773
    163 C55        -0.5060    3.3670   -1.8420 c3        1 MOL     -0.076352
    164 C56         0.1550    2.5220   -0.7370 c3        1 MOL      0.222641
    165 C57         1.4430    2.9780   -0.1110 c         1 MOL      0.586778
    166 O25         2.2410    2.0510    0.2380 o         1 MOL     -0.614317
    167 O26         1.6620    4.1920    0.0250 o         1 MOL     -0.614317
    168 H71        -2.5430    3.4480   -0.4010 hn        1 MOL      0.205869
    169 H72        -0.4160    5.2980   -0.8990 h1        1 MOL      0.207579
    170 H73         0.1850    3.5800   -2.6640 hc        1 MOL      0.018894
    171 H74        -1.2740    2.7570   -2.2980 hc        1 MOL      0.018894
    172 H75         0.1070    1.4460   -0.9230 hc        1 MOL     -0.061963
    173 H76        -0.5090    2.7030    0.1110 hc        1 MOL     -0.061963
    174 N15        -2.6910    5.5750   -3.0930 n         1 MOL     -0.297680
    175 C58        -3.3510    6.4630   -3.9990 c3        1 MOL     -0.248700
    176 H77        -4.3520    6.0880   -4.2110 h1        1 MOL      0.102817
    177 H78        -3.4220    7.4530   -3.5500 h1        1 MOL      0.102817
    178 H79        -2.7830    6.5240   -4.9270 h1        1 MOL      0.102817
    179 H80        -3.3540    5.1370   -2.4630 hn        1 MOL      0.206215
    180 Ca1         4.4570    1.7830    1.3890 Ca        1 MOL      1.750932
    181 O27         3.8850    4.4560    1.3340 oh        1 MOL     -0.856633
    182 H81         3.1340    4.5060    0.7410 ho        1 MOL      0.396725
    183 H82         4.5340    5.0490    0.9550 ho        1 MOL      0.396725
    184 O28         4.9560    2.6930    4.0020 oh        1 MOL     -0.856633
    185 H83         4.5140    1.8710    4.2170 ho        1 MOL      0.396725
    186 H84         5.1830    3.0740    4.8500 ho        1 MOL      0.396725
    187 O29         6.3110    0.1750    2.4940 oh        1 MOL     -0.856633
    188 H85         6.2820   -0.0070    3.4360 ho        1 MOL      0.396725
    189 H86         7.1600   -0.1560    2.2030 ho        1 MOL      0.396725
@<TRIPOS>BOND
     1    1    2 1   
     2    1    4 1   
     3    1    5 1   
     4    1    6 1   
     5    2    3 2   
     6    2    7 1   
     7    7    8 1   
     8    7   15 1   
     9    8    9 1   
    10    8   11 1   
    11    8   16 1   
    12    9   10 2   
    13    9   19 1   
    14   11   12 1   
    15   11   17 1   
    16   11   18 1   
    17   12   13 1   
    18   12   14 1   
    19   19   20 1   
    20   19   27 1   
    21   20   21 1   
    22   20   23 1   
    23   20   28 1   
    24   21   22 2   
    25   21   38 1   
    26   23   24 1   
    27   23   25 1   
    28   23   29 1   
    29   24   26 1   
    30   24   30 1   
    31   24   31 1   
    32   25   32 1   
    33   25   33 1   
    34   25   34 1   
    35   26   35 1   
    36   26   36 1   
    37   26   37 1   
    38   38   39 1   
    39   38   46 1   
    40   39   40 1   
    41   39   42 1   
    42   39   47 1   
    43   40   41 2   
    44   40   50 1   
    45   42   43 1   
    46   42   48 1   
    47   42   49 1   
    48   43   44 1   
    49   43   45 1   
    50   50   51 1   
    51   50   54 1   
    52   51   52 1   
    53   51   55 1   
    54   51   56 1   
    55   52   53 2   
    56   52   57 1   
    57   57   58 1   
    58   57   65 1   
    59   58   59 1   
    60   58   61 1   
    61   58   66 1   
    62   59   60 2   
    63   59   69 1   
    64   61   62 1   
    65   61   67 1   
    66   61   68 1   
    67   62   63 1   
    68   62   64 1   
    69   69   70 1   
    70   69   73 1   
    71   70   71 1   
    72   70   74 1   
    73   70   75 1   
    74   71   72 2   
    75   71   76 1   
    76   76   77 1   
    77   76   85 1   
    78   77   78 1   
    79   77   80 1   
    80   77   86 1   
    81   78   79 2   
    82   78   93 1   
    83   80   81 1   
    84   80   87 1   
    85   80   88 1   
    86   81   82 1   
    87   81   89 1   
    88   81   90 1   
    89   82   83 1   
    90   82   84 2   
    91   83   91 1   
    92   83   92 1   
    93   93   94 1   
    94   93  100 1   
    95   94   95 1   
    96   94   97 1   
    97   94  101 1   
    98   95   96 2   
    99   95  109 1   
   100   97   98 1   
   101   97   99 1   
   102   97  102 1   
   103   98  103 1   
   104   98  104 1   
   105   98  105 1   
   106   99  106 1   
   107   99  107 1   
   108   99  108 1   
   109  109  110 1   
   110  109  117 1   
   111  110  111 1   
   112  110  113 1   
   113  110  118 1   
   114  111  112 2   
   115  111  123 1   
   116  113  114 1   
   117  113  119 1   
   118  113  120 1   
   119  114  115 1   
   120  114  116 2   
   121  115  121 1   
   122  115  122 1   
   123  123  124 1   
   124  123  135 1   
   125  124  125 1   
   126  124  127 1   
   127  124  136 1   
   128  125  126 2   
   129  125  144 1   
   130  127  128 1   
   131  127  137 1   
   132  127  138 1   
   133  128  129 ar  
   134  128  130 ar  
   135  129  131 ar  
   136  129  139 1   
   137  130  132 ar  
   138  130  140 1   
   139  131  133 ar  
   140  131  141 1   
   141  132  133 ar  
   142  132  142 1   
   143  133  134 1   
   144  134  143 1   
   145  144  145 1   
   146  144  153 1   
   147  145  146 1   
   148  145  148 1   
   149  145  154 1   
   150  146  147 2   
   151  146  159 1   
   152  148  149 1   
   153  148  155 1   
   154  148  156 1   
   155  149  150 1   
   156  149  157 1   
   157  149  158 1   
   158  150  151 1   
   159  150  152 1   
   160  159  160 1   
   161  159  168 1   
   162  160  161 1   
   163  160  163 1   
   164  160  169 1   
   165  161  162 2   
   166  161  174 1   
   167  163  164 1   
   168  163  170 1   
   169  163  171 1   
   170  164  165 1   
   171  164  172 1   
   172  164  173 1   
   173  165  166 1   
   174  165  167 1   
   175  174  175 1   
   176  174  179 1   
   177  175  176 1   
   178  175  177 1   
   179  175  178 1   
   180  181  182 1   
   181  181  183 1   
   182  184  185 1   
   183  184  186 1   
   184  187  188 1   
   185  187  189 1   
@<TRIPOS>SUBSTRUCTURE
     1 MOL         1 TEMP              0 ****  ****    0 ROOT
