@<TRIPOS>MOLECULE
MOL
  192   187     1     0     0
SMALL
resp


@<TRIPOS>ATOM
      1 C1          4.8640   -6.2870   -2.0170 c3        1 MOL     -0.224939
      2 C2          4.5560   -4.8520   -1.4930 c         1 MOL      0.723964
      3 O1          4.5350   -4.7150   -0.3050 o         1 MOL     -0.559614
      4 H1          5.9330   -6.4800   -1.9380 hc        1 MOL      0.052545
      5 H2          4.3180   -7.0170   -1.4190 hc        1 MOL      0.052545
      6 H3          4.5560   -6.3680   -3.0600 hc        1 MOL      0.052545
      7 N1          4.4850   -3.7710   -2.3250 n         1 MOL     -0.533215
      8 C3          4.3680   -2.3880   -1.8090 c3        1 MOL      0.004225
      9 C4          2.9000   -2.0700   -1.4990 c         1 MOL      0.098317
     10 O2          2.6490   -0.9840   -0.9690 o         1 MOL     -0.254647
     11 C5          4.9600   -1.4420   -2.7890 c3        1 MOL     -0.132030
     12 C6          4.9380   -1.8000   -4.2390 c         1 MOL      0.680129
     13 O3          4.0140   -1.2680   -4.8820 o         1 MOL     -0.722216
     14 O4          5.7410   -2.6630   -4.6920 o         1 MOL     -0.722216
     15 H4          4.6370   -3.8890   -3.3230 hn        1 MOL      0.319187
     16 H5          4.8310   -2.1730   -0.8390 h1        1 MOL      0.157617
     17 H6          6.0050   -1.2030   -2.5880 hc        1 MOL      0.071631
     18 H7          4.3960   -0.5120   -2.6460 hc        1 MOL      0.071631
     19 N2          1.9440   -2.9630   -1.7530 n         1 MOL      0.026483
     20 C7          0.4760   -2.7800   -1.5390 c3        1 MOL      0.058672
     21 C8          0.1330   -3.5090   -0.2630 c         1 MOL      0.388856
     22 O5          0.5290   -4.6430   -0.0640 o         1 MOL     -0.525746
     23 C9         -0.3990   -3.4080   -2.7050 c3        1 MOL     -0.198339
     24 C10        -0.1940   -2.5120   -3.9140 c3        1 MOL      0.174487
     25 C11        -0.8760   -3.1210   -5.2320 c3        1 MOL     -0.089837
     26 C12         0.0290   -2.9870   -6.4730 c3        1 MOL     -0.056250
     27 N3          0.2020   -1.5510   -6.8210 n4        1 MOL     -0.328796
     28 H8          2.2350   -3.8560   -2.1180 hn        1 MOL      0.125379
     29 H9          0.2950   -1.7170   -1.3740 h1        1 MOL      0.042024
     30 H10        -1.4490   -3.5730   -2.4830 hc        1 MOL      0.079016
     31 H11        -0.0060   -4.3780   -3.0080 hc        1 MOL      0.079016
     32 H12         0.8840   -2.4410   -4.0860 hc        1 MOL     -0.047650
     33 H13        -0.5450   -1.5030   -3.7020 hc        1 MOL     -0.047650
     34 H14        -1.8340   -2.6260   -5.3760 hc        1 MOL      0.065018
     35 H15        -0.9990   -4.1930   -5.0690 hc        1 MOL      0.065018
     36 H16        -0.5680   -3.5570   -7.1800 hx        1 MOL      0.114643
     37 H17         0.9740   -3.4870   -6.2820 hx        1 MOL      0.114643
     38 H18         0.8480   -1.3920   -7.5830 hn        1 MOL      0.322481
     39 H19        -0.6210   -0.9760   -7.0000 hn        1 MOL      0.322481
     40 H20         0.6360   -1.0800   -6.0400 hn        1 MOL      0.322481
     41 N4         -0.5710   -2.9150    0.7040 n         1 MOL     -0.321963
     42 C13        -1.0980   -1.5240    0.8740 c3        1 MOL      0.024851
     43 C14        -1.8080   -0.9250   -0.3350 c         1 MOL      0.123194
     44 O6         -1.5240    0.1710   -0.7930 o         1 MOL     -0.303156
     45 C15        -0.0450   -0.5550    1.3690 c3        1 MOL     -0.076816
     46 C16         0.7210   -0.8150    2.7050 c         1 MOL      0.603348
     47 O7          0.7240   -1.8830    3.2880 o         1 MOL     -0.709283
     48 O8          1.2450    0.2040    3.2540 o         1 MOL     -0.709283
     49 H21        -0.8010   -3.5210    1.4780 hn        1 MOL      0.284881
     50 H22        -1.8880   -1.6430    1.6120 h1        1 MOL      0.071748
     51 H23        -0.5110    0.4270    1.4490 hc        1 MOL      0.069421
     52 H24         0.7530   -0.4520    0.6230 hc        1 MOL      0.069421
     53 N5         -2.6870   -1.7070   -0.9490 n         1 MOL     -0.058253
     54 C17        -3.6330   -2.6250   -0.3290 c3        1 MOL      0.019204
     55 C18        -4.3790   -3.5350   -1.2280 c         1 MOL      0.485538
     56 O9         -4.0350   -3.4880   -2.4340 o         1 MOL     -0.550682
     57 H25        -3.0780   -1.4440   -1.8440 hn        1 MOL      0.232986
     58 H26        -4.3130   -1.9850    0.2340 h1        1 MOL      0.005521
     59 H27        -3.1990   -3.1460    0.5170 h1        1 MOL      0.005521
     60 N6         -5.4060   -4.2760   -0.7570 n         1 MOL     -0.314065
     61 C19        -6.0320   -4.2120    0.5190 c3        1 MOL     -0.106216
     62 C20        -6.8300   -2.9570    0.7570 c         1 MOL      0.584305
     63 O10        -7.3410   -2.3310   -0.1840 o         1 MOL     -0.483537
     64 C21        -7.0320   -5.4450    0.6090 c3        1 MOL     -0.190682
     65 C22        -8.1130   -5.5380   -0.4960 c         1 MOL      0.686710
     66 O11        -9.1990   -4.8660   -0.4290 o         1 MOL     -0.671184
     67 O12        -7.8560   -6.3250   -1.4470 o         1 MOL     -0.671184
     68 H28        -5.6190   -5.0440   -1.3770 hn        1 MOL      0.283124
     69 H29        -5.2970   -4.3310    1.3210 h1        1 MOL      0.059027
     70 H30        -7.5320   -5.5030    1.5810 hc        1 MOL      0.040389
     71 H31        -6.4770   -6.3720    0.4260 hc        1 MOL      0.040389
     72 N7         -6.8490   -2.3640    1.9500 n         1 MOL     -0.438422
     73 C23        -7.7910   -1.3020    2.3260 c3        1 MOL     -0.028707
     74 C24        -7.2160    0.1730    2.2420 c         1 MOL      0.487704
     75 O13        -7.6970    1.0850    2.9360 o         1 MOL     -0.535041
     76 H32        -6.3990   -2.8940    2.6770 hn        1 MOL      0.259564
     77 H33        -8.2520   -1.4930    3.2880 h1        1 MOL      0.104308
     78 H34        -8.6430   -1.3670    1.6430 h1        1 MOL      0.104308
     79 N8         -6.1550    0.3660    1.4380 n         1 MOL     -0.454936
     80 C25        -5.3720    1.5920    1.4020 c3        1 MOL      0.197639
     81 C26        -4.9170    1.9130    0.0060 c         1 MOL      0.594433
     82 O14        -4.4520    1.0420   -0.7140 o         1 MOL     -0.491621
     83 C27        -4.1710    1.5900    2.3690 c3        1 MOL      0.170596
     84 C28        -4.4470    1.5490    3.8840 c3        1 MOL     -0.510438
     85 O15        -3.4640    2.8130    2.2380 oh        1 MOL     -0.585895
     86 H35        -5.9160   -0.3670    0.7870 hn        1 MOL      0.220621
     87 H36        -6.0630    2.3710    1.7120 h1        1 MOL      0.076718
     88 H37        -3.4940    0.7620    2.1490 h1        1 MOL      0.081405
     89 H38        -2.7020    2.8410    2.8320 ho        1 MOL      0.403686
     90 H39        -5.0000    2.4320    4.1870 hc        1 MOL      0.142049
     91 H40        -5.0340    0.7130    4.2550 hc        1 MOL      0.142049
     92 H41        -3.4660    1.6090    4.3750 hc        1 MOL      0.142049
     93 N9         -4.9390    3.2140   -0.3010 n         1 MOL     -0.598926
     94 C29        -4.4370    3.8130   -1.5530 c3        1 MOL     -0.155407
     95 C30        -2.9670    4.2480   -1.2930 c         1 MOL      0.628321
     96 O16        -2.2000    4.4750   -2.2550 o         1 MOL     -0.538531
     97 C31        -5.4090    4.9220   -2.0920 c3        1 MOL      0.220112
     98 C32        -6.8970    4.4020   -2.2160 c3        1 MOL      0.052377
     99 C33        -4.9590    5.6180   -3.3950 c3        1 MOL     -0.461517
    100 C34        -7.8070    5.6010   -1.9430 c3        1 MOL     -0.157792
    101 H42        -4.9580    3.7500    0.5540 hn        1 MOL      0.292143
    102 H43        -4.4110    2.9660   -2.2500 h1        1 MOL      0.145937
    103 H44        -5.4440    5.7070   -1.3220 hc        1 MOL      0.007363
    104 H45        -7.3010    3.7470   -1.4590 hc        1 MOL      0.023878
    105 H46        -7.1080    4.0350   -3.2240 hc        1 MOL      0.023878
    106 H47        -4.4200    4.8540   -3.9650 hc        1 MOL      0.122410
    107 H48        -5.7560    6.0110   -4.0260 hc        1 MOL      0.122410
    108 H49        -4.2510    6.4100   -3.1480 hc        1 MOL      0.122410
    109 H50        -7.5460    5.9750   -0.9510 hc        1 MOL      0.032125
    110 H51        -7.6910    6.3690   -2.7150 hc        1 MOL      0.032125
    111 H52        -8.8390    5.2620   -1.9460 hc        1 MOL      0.032125
    112 N10        -2.5190    4.3640   -0.0270 n         1 MOL     -0.397949
    113 C35        -1.1750    4.8990    0.3540 c3        1 MOL     -0.151775
    114 C36        -0.2390    3.7120    0.1850 c         1 MOL      0.578362
    115 O17         0.1470    3.0590    1.1860 o         1 MOL     -0.559885
    116 C37        -1.1230    5.6230    1.6930 c3        1 MOL      0.449551
    117 C38        -2.0170    6.8150    1.7930 c3        1 MOL     -0.310546
    118 O18         0.2340    5.9120    1.9720 oh        1 MOL     -0.623756
    119 H53        -3.0750    3.9230    0.6840 hn        1 MOL      0.254518
    120 H54        -0.8710    5.6980   -0.3230 h1        1 MOL      0.137445
    121 H55        -1.4970    4.9720    2.4960 h1        1 MOL     -0.034528
    122 H56         0.3590    5.9170    2.9240 ho        1 MOL      0.389246
    123 H57        -1.8290    7.5310    1.0000 hc        1 MOL      0.068132
    124 H58        -3.0390    6.4760    1.5980 hc        1 MOL      0.068132
    125 H59        -1.9020    7.1350    2.8320 hc        1 MOL      0.068132
    126 N11         0.0670    3.3990   -1.0600 n         1 MOL     -0.382323
    127 C39         0.9280    2.2340   -1.4270 c3        1 MOL      0.016470
    128 C40         2.4560    2.6190   -1.4360 c         1 MOL      0.693339
    129 O19         2.7330    3.8050   -1.6100 o         1 MOL     -0.608070
    130 C41         0.4660    1.8150   -2.8020 c3        1 MOL      0.531540
    131 C42         0.6490    2.8850   -3.9170 c3        1 MOL     -0.613148
    132 O20        -0.8880    1.4870   -2.8180 oh        1 MOL     -0.608557
    133 H60        -0.3750    3.8790   -1.8280 hn        1 MOL      0.193035
    134 H61         0.8670    1.4050   -0.7260 h1        1 MOL     -0.025929
    135 H62         1.0010    0.9060   -3.0940 h1        1 MOL     -0.094508
    136 H63        -1.0640    1.0280   -1.9960 ho        1 MOL      0.292234
    137 H64         0.2160    2.5240   -4.8530 hc        1 MOL      0.157204
    138 H65         0.1360    3.8180   -3.6810 hc        1 MOL      0.157204
    139 H66         1.7010    3.1240   -4.0400 hc        1 MOL      0.157204
    140 N12         3.3760    1.6650   -1.2510 n         1 MOL     -0.637774
    141 C43         4.7680    2.0800   -0.8470 c3        1 MOL      0.206982
    142 C44         5.4290    1.2910    0.3330 c         1 MOL      0.439959
    143 O21         6.4050    1.7750    0.8870 o         1 MOL     -0.582935
    144 C45         5.7090    2.2150   -2.0780 c3        1 MOL      0.060381
    145 C46         6.9430    3.1130   -1.8140 c3        1 MOL      0.153472
    146 C47         6.6910    4.5990   -1.3940 c3        1 MOL     -0.219541
    147 C48         5.8960    5.4220   -2.4490 c3        1 MOL      0.258472
    148 N13         6.0830    6.9190   -2.2530 n4        1 MOL     -0.506964
    149 H67         3.1470    0.6840   -1.3100 hn        1 MOL      0.302324
    150 H68         4.6960    3.0810   -0.4190 h1        1 MOL      0.057109
    151 H69         5.1320    2.5760   -2.9320 hc        1 MOL     -0.048741
    152 H70         6.0260    1.2170   -2.3740 hc        1 MOL     -0.048741
    153 H71         7.6150    3.1730   -2.6710 hc        1 MOL     -0.006980
    154 H72         7.4800    2.6230   -1.0070 hc        1 MOL     -0.006980
    155 H73         7.7090    4.9850   -1.3270 hc        1 MOL      0.052002
    156 H74         6.2770    4.6490   -0.3880 hc        1 MOL      0.052002
    157 H75         4.8720    5.0400   -2.4800 hx        1 MOL      0.022610
    158 H76         6.3380    5.2440   -3.4380 hx        1 MOL      0.022610
    159 H77         5.4850    7.4040   -2.9060 hn        1 MOL      0.346113
    160 H78         5.7360    7.1110   -1.3270 hn        1 MOL      0.346113
    161 H79         7.0450    7.1950   -2.3650 hn        1 MOL      0.346113
    162 N14         4.8640    0.1490    0.7130 n         1 MOL     -0.116267
    163 C49         5.5150   -0.6840    1.7740 c3        1 MOL     -0.195534
    164 C50         6.9180   -1.3120    1.4940 c         1 MOL      0.417898
    165 O22         7.1110   -1.8340    0.3250 o         1 MOL     -0.505775
    166 C51         4.5470   -1.8200    2.0700 c3        1 MOL      0.045025
    167 C52         5.0010   -2.6920    3.3230 c3        1 MOL     -0.498258
    168 C53         5.1220   -1.9420    4.6780 c         1 MOL      0.739273
    169 O23         4.0460   -1.5440    5.0800 o         1 MOL     -0.742447
    170 O24         6.2360   -1.7370    5.1970 o         1 MOL     -0.742447
    171 H80         4.1100   -0.1640    0.1190 hn        1 MOL      0.037162
    172 H81         5.5930   -0.1440    2.7160 h1        1 MOL      0.154314
    173 H82         4.4770   -2.4400    1.1780 hc        1 MOL      0.063833
    174 H83         3.5880   -1.3530    2.3170 hc        1 MOL      0.063833
    175 H84         5.9500   -3.1930    3.1140 hc        1 MOL      0.147045
    176 H85         4.3930   -3.5870    3.4180 hc        1 MOL      0.147045
    177 N15         7.8090   -1.2800    2.4620 n         1 MOL     -0.244744
    178 C54         9.2350   -1.6370    2.2450 c3        1 MOL     -0.039229
    179 H86         9.3210   -2.2650    1.3580 h1        1 MOL      0.056383
    180 H87         9.8200   -0.7280    2.1040 h1        1 MOL      0.056383
    181 H88         9.6100   -2.1810    3.1120 h1        1 MOL      0.056383
    182 H89         7.5750   -0.7450    3.2840 hn        1 MOL      0.309054
    183 Ca1         1.7420   -0.8200    5.6060 Ca        1 MOL      1.702677
    184 O25        -0.4910   -1.8260    6.5350 oh        1 MOL     -0.865101
    185 H90        -1.3140   -1.3430    6.6270 ho        1 MOL      0.430440
    186 H91        -0.7440   -2.7460    6.5260 ho        1 MOL      0.430440
    187 O26        -0.0450    1.2180    6.1310 oh        1 MOL     -0.865101
    188 H92        -0.8170    1.2320    6.6820 ho        1 MOL      0.430440
    189 H93         0.3990    2.0460    6.3200 ho        1 MOL      0.430440
    190 O27         2.8500    1.6760    5.6480 oh        1 MOL     -0.865101
    191 H94         2.4170    2.3860    6.1300 ho        1 MOL      0.430440
    192 H95         3.7370    2.0100    5.4920 ho        1 MOL      0.430440
@<TRIPOS>BOND
     1    1    2 1   
     2    1    4 1   
     3    1    5 1   
     4    1    6 1   
     5    2    3 2   
     6    2    7 1   
     7    7    8 1   
     8    7   15 1   
     9    8    9 1   
    10    8   11 1   
    11    8   16 1   
    12    9   10 2   
    13    9   19 1   
    14   11   12 1   
    15   11   17 1   
    16   11   18 1   
    17   12   13 1   
    18   12   14 1   
    19   19   20 1   
    20   19   28 1   
    21   20   21 1   
    22   20   23 1   
    23   20   29 1   
    24   21   22 2   
    25   21   41 1   
    26   23   24 1   
    27   23   30 1   
    28   23   31 1   
    29   24   25 1   
    30   24   32 1   
    31   24   33 1   
    32   25   26 1   
    33   25   34 1   
    34   25   35 1   
    35   26   27 1   
    36   26   36 1   
    37   26   37 1   
    38   27   38 1   
    39   27   39 1   
    40   27   40 1   
    41   41   42 1   
    42   41   49 1   
    43   42   43 1   
    44   42   45 1   
    45   42   50 1   
    46   43   44 2   
    47   43   53 1   
    48   45   46 1   
    49   45   51 1   
    50   45   52 1   
    51   46   47 1   
    52   46   48 1   
    53   53   54 1   
    54   53   57 1   
    55   54   55 1   
    56   54   58 1   
    57   54   59 1   
    58   55   56 2   
    59   55   60 1   
    60   60   61 1   
    61   60   68 1   
    62   61   62 1   
    63   61   64 1   
    64   61   69 1   
    65   62   63 2   
    66   62   72 1   
    67   64   65 1   
    68   64   70 1   
    69   64   71 1   
    70   65   66 1   
    71   65   67 1   
    72   72   73 1   
    73   72   76 1   
    74   73   74 1   
    75   73   77 1   
    76   73   78 1   
    77   74   75 2   
    78   74   79 1   
    79   79   80 1   
    80   79   86 1   
    81   80   81 1   
    82   80   83 1   
    83   80   87 1   
    84   81   82 2   
    85   81   93 1   
    86   83   84 1   
    87   83   85 1   
    88   83   88 1   
    89   84   90 1   
    90   84   91 1   
    91   84   92 1   
    92   85   89 1   
    93   93   94 1   
    94   93  101 1   
    95   94   95 1   
    96   94   97 1   
    97   94  102 1   
    98   95   96 2   
    99   95  112 1   
   100   97   98 1   
   101   97   99 1   
   102   97  103 1   
   103   98  100 1   
   104   98  104 1   
   105   98  105 1   
   106   99  106 1   
   107   99  107 1   
   108   99  108 1   
   109  100  109 1   
   110  100  110 1   
   111  100  111 1   
   112  112  113 1   
   113  112  119 1   
   114  113  114 1   
   115  113  116 1   
   116  113  120 1   
   117  114  115 2   
   118  114  126 1   
   119  116  117 1   
   120  116  118 1   
   121  116  121 1   
   122  117  123 1   
   123  117  124 1   
   124  117  125 1   
   125  118  122 1   
   126  126  127 1   
   127  126  133 1   
   128  127  128 1   
   129  127  130 1   
   130  127  134 1   
   131  128  129 2   
   132  128  140 1   
   133  130  131 1   
   134  130  132 1   
   135  130  135 1   
   136  131  137 1   
   137  131  138 1   
   138  131  139 1   
   139  132  136 1   
   140  140  141 1   
   141  140  149 1   
   142  141  142 1   
   143  141  144 1   
   144  141  150 1   
   145  142  143 2   
   146  142  162 1   
   147  144  145 1   
   148  144  151 1   
   149  144  152 1   
   150  145  146 1   
   151  145  153 1   
   152  145  154 1   
   153  146  147 1   
   154  146  155 1   
   155  146  156 1   
   156  147  148 1   
   157  147  157 1   
   158  147  158 1   
   159  148  159 1   
   160  148  160 1   
   161  148  161 1   
   162  162  163 1   
   163  162  171 1   
   164  163  164 1   
   165  163  166 1   
   166  163  172 1   
   167  164  165 2   
   168  164  177 1   
   169  166  167 1   
   170  166  173 1   
   171  166  174 1   
   172  167  168 1   
   173  167  175 1   
   174  167  176 1   
   175  168  169 1   
   176  168  170 1   
   177  177  178 1   
   178  177  182 1   
   179  178  179 1   
   180  178  180 1   
   181  178  181 1   
   182  184  185 1   
   183  184  186 1   
   184  187  188 1   
   185  187  189 1   
   186  190  191 1   
   187  190  192 1   
@<TRIPOS>SUBSTRUCTURE
     1 MOL         1 TEMP              0 ****  ****    0 ROOT
