@<TRIPOS>MOLECULE
MOL
  198   191     1     0     0
SMALL
resp


@<TRIPOS>ATOM
      1 C1         -3.9720    5.8630    3.9370 c3        1 MOL     -0.418669
      2 C2         -3.9180    4.5240    3.1200 c         1 MOL      0.677066
      3 O1         -3.1780    3.6150    3.4660 o         1 MOL     -0.565159
      4 H1         -4.4800    5.6890    4.8860 hc        1 MOL      0.118043
      5 H2         -2.9580    6.2140    4.1280 hc        1 MOL      0.118043
      6 H3         -4.5160    6.6150    3.3670 hc        1 MOL      0.118043
      7 N1         -4.6250    4.4060    2.0340 n         1 MOL     -0.498468
      8 C3         -4.6480    3.1700    1.1600 c3        1 MOL      0.165443
      9 C4         -3.3600    2.9210    0.2570 c         1 MOL      0.515541
     10 O2         -3.4450    2.2390   -0.7360 o         1 MOL     -0.620991
     11 C5         -5.9000    3.2370    0.2680 c3        1 MOL     -0.482531
     12 C6         -5.9990    4.6320   -0.4470 c         1 MOL      0.769790
     13 O3         -6.4630    5.5200    0.2610 o         1 MOL     -0.691548
     14 O4         -5.7040    4.8510   -1.6060 o         1 MOL     -0.691548
     15 H4         -5.0200    5.2600    1.6650 hn        1 MOL      0.300564
     16 H5         -4.7190    2.2350    1.7080 h1        1 MOL      0.056081
     17 H6         -6.8060    3.1360    0.8700 hc        1 MOL      0.133817
     18 H7         -5.9750    2.4310   -0.4670 hc        1 MOL      0.133817
     19 N2         -2.2460    3.5330    0.6430 n         1 MOL     -0.310515
     20 C7         -0.9380    3.5630   -0.0980 c3        1 MOL      0.003808
     21 C8          0.2350    3.4350    0.9400 c         1 MOL      0.603355
     22 O5          0.2020    4.0920    1.9510 o         1 MOL     -0.572037
     23 C9         -0.7890    4.9660   -0.8980 c3        1 MOL     -0.134673
     24 C10        -2.0260    5.2730   -1.8680 c3        1 MOL     -0.132795
     25 C11        -1.7090    4.4910   -3.1710 c3        1 MOL      0.143108
     26 C12        -2.9640    4.2980   -3.9480 c3        1 MOL     -0.655806
     27 N3         -3.8870    3.4130   -3.2650 n4        1 MOL     -0.074270
     28 H8         -2.2730    4.1220    1.4700 hn        1 MOL      0.204087
     29 H9         -0.9210    2.7630   -0.8460 h1        1 MOL      0.175950
     30 H10         0.1590    4.9390   -1.4430 hc        1 MOL      0.063144
     31 H11        -0.7470    5.8110   -0.2150 hc        1 MOL      0.063144
     32 H12        -1.8650    6.3320   -2.0550 hc        1 MOL      0.081663
     33 H13        -3.0300    5.0740   -1.4910 hc        1 MOL      0.081663
     34 H14        -1.3080    3.4980   -2.9570 hc        1 MOL      0.066713
     35 H15        -1.0480    5.1470   -3.7290 hc        1 MOL      0.066713
     36 H16        -2.7850    3.7790   -4.8930 hx        1 MOL      0.229240
     37 H17        -3.4120    5.2870   -4.0400 hx        1 MOL      0.229240
     38 H18        -4.8230    3.4820   -3.6610 hn        1 MOL      0.251754
     39 H19        -3.5670    2.4640   -3.2480 hn        1 MOL      0.251754
     40 H20        -4.0510    3.7500   -2.3260 hn        1 MOL      0.251754
     41 N4          1.2500    2.6020    0.8190 n         1 MOL     -0.586582
     42 C13         1.6400    1.8680   -0.3650 c3        1 MOL      0.097919
     43 C14         1.9090    2.6430   -1.7020 c         1 MOL      0.479009
     44 O6          1.0950    2.5050   -2.6480 o         1 MOL     -0.603961
     45 C15         0.7330    0.6230   -0.5600 c3        1 MOL      0.110773
     46 C16         0.1280   -0.0510    0.6640 c         1 MOL      0.665047
     47 O7         -1.0380   -0.4770    0.6550 o         1 MOL     -0.724026
     48 O8          0.9050   -0.1940    1.6520 o         1 MOL     -0.724026
     49 H21         1.9220    2.6080    1.5830 hn        1 MOL      0.327190
     50 H22         2.6070    1.4170   -0.1400 h1        1 MOL      0.018440
     51 H23         1.2660   -0.0780   -1.1950 hc        1 MOL      0.006164
     52 H24        -0.0530    0.9750   -1.2220 hc        1 MOL      0.006164
     53 N5          2.8350    3.5490   -1.9180 n         1 MOL     -0.302989
     54 C17         3.9700    3.8530   -1.0350 c3        1 MOL      0.027308
     55 C18         5.0830    4.7000   -1.7090 c         1 MOL      0.367517
     56 O9          4.9100    5.3110   -2.7810 o         1 MOL     -0.524355
     57 H25         2.8770    3.9440   -2.8500 hn        1 MOL      0.275232
     58 H26         4.4280    2.9150   -0.7060 h1        1 MOL      0.048431
     59 H27         3.6460    4.3370   -0.1190 h1        1 MOL      0.048431
     60 N6          6.2810    4.8260   -1.1840 n         1 MOL     -0.232338
     61 C19         6.8140    4.1500   -0.0280 c3        1 MOL     -0.004199
     62 C20         7.4220    2.7960   -0.4280 c         1 MOL      0.392424
     63 O10         7.2730    2.3170   -1.5580 o         1 MOL     -0.446713
     64 C21         7.7930    5.1240    0.6990 c3        1 MOL     -0.394854
     65 C22         8.7480    5.8930   -0.2460 c         1 MOL      0.766092
     66 O11         9.2800    5.2270   -1.1650 o         1 MOL     -0.626142
     67 O12         8.9960    7.0810   -0.1080 o         1 MOL     -0.626142
     68 H28         6.8570    5.4880   -1.6720 hn        1 MOL      0.296269
     69 H29         6.0570    3.9070    0.7150 h1        1 MOL      0.057471
     70 H30         8.5350    4.5750    1.2720 hc        1 MOL      0.089707
     71 H31         7.1990    5.8440    1.2570 hc        1 MOL      0.089707
     72 N7          8.2300    2.2500    0.4590 n         1 MOL     -0.251555
     73 C23         8.6710    0.8400    0.4440 c3        1 MOL     -0.188993
     74 C24         7.6940   -0.2180    0.9570 c         1 MOL      0.607723
     75 O13         7.9170   -0.8160    1.9480 o         1 MOL     -0.539192
     76 H32         8.3480    2.6540    1.3790 hn        1 MOL      0.258263
     77 H33         9.5400    0.7580    1.0960 h1        1 MOL      0.116597
     78 H34         9.0410    0.6460   -0.5550 h1        1 MOL      0.116597
     79 N8          6.5610   -0.4040    0.2490 n         1 MOL     -0.536046
     80 C25         5.5160   -1.4330    0.5280 c3        1 MOL      0.244268
     81 C26         5.3370   -2.5560   -0.5760 c         1 MOL      0.555725
     82 O14         5.7000   -2.2360   -1.7270 o         1 MOL     -0.523402
     83 C27         4.1370   -0.7490    0.8540 c3        1 MOL      0.211214
     84 C28         4.2580    0.2410    2.0490 c3        1 MOL     -0.020969
     85 O15         3.1180   -1.6250    1.2470 oh        1 MOL     -0.607231
     86 H35         6.5840    0.0980   -0.6350 hn        1 MOL      0.235447
     87 H36         5.8520   -1.9550    1.4220 h1        1 MOL      0.038062
     88 H37         3.7000   -0.2590   -0.0200 h1        1 MOL      0.053662
     89 H38         2.4010   -1.0630    1.5540 ho        1 MOL      0.194070
     90 H39         3.2880    0.5180    2.4630 hc        1 MOL      0.001277
     91 H40         4.9790   -0.1530    2.7530 hc        1 MOL      0.001277
     92 H41         4.7650    1.1770    1.7950 hc        1 MOL      0.001277
     93 N9          4.8300   -3.7720   -0.3080 n         1 MOL     -0.584164
     94 C29         4.5180   -4.7660   -1.3720 c3        1 MOL      0.033747
     95 C30         3.0650   -4.8650   -1.6950 c         1 MOL      0.548384
     96 O16         2.7920   -5.0810   -2.9170 o         1 MOL     -0.578525
     97 C31         4.9570   -6.1570   -0.9660 c3        1 MOL      0.152626
     98 C32         6.4560   -6.2140   -0.4800 c3        1 MOL      0.012064
     99 C33         4.7600   -7.1950   -2.1090 c3        1 MOL     -0.325515
    100 C34         7.4480   -5.8890   -1.6970 c3        1 MOL     -0.128320
    101 H42         4.5240   -3.9830    0.6350 hn        1 MOL      0.302387
    102 H43         5.0330   -4.5180   -2.2930 h1        1 MOL      0.129897
    103 H44         4.3270   -6.5110   -0.1500 hc        1 MOL     -0.035338
    104 H45         6.8140   -7.1560   -0.0880 hc        1 MOL     -0.003521
    105 H46         6.5010   -5.4740    0.3150 hc        1 MOL     -0.003521
    106 H47         5.1900   -8.0950   -1.6820 hc        1 MOL      0.086458
    107 H48         3.7150   -7.3490   -2.3860 hc        1 MOL      0.086458
    108 H49         5.2980   -6.8090   -2.9790 hc        1 MOL      0.086458
    109 H50         7.0580   -5.2440   -2.4820 hc        1 MOL      0.038705
    110 H51         8.3740   -5.5920   -1.2180 hc        1 MOL      0.038705
    111 H52         7.6620   -6.7880   -2.2770 hc        1 MOL      0.038705
    112 N10         2.2020   -4.7640   -0.7190 n         1 MOL     -0.304915
    113 C35         0.7630   -4.8660   -0.9110 c3        1 MOL     -0.053351
    114 C36         0.1070   -3.6900   -1.6850 c         1 MOL      0.710028
    115 O17         0.7710   -2.6770   -1.8840 o         1 MOL     -0.534737
    116 C37         0.0600   -5.1330    0.3820 c3        1 MOL      0.486149
    117 C38         0.4200   -4.1400    1.4590 c3        1 MOL     -0.029301
    118 O18         0.3730   -6.4590    0.8300 oh        1 MOL     -0.695668
    119 H53         2.5280   -4.6130    0.2280 hn        1 MOL      0.253367
    120 H54         0.6610   -5.7390   -1.5560 h1        1 MOL      0.060644
    121 H55        -1.0130   -5.0390    0.1880 h1        1 MOL     -0.095504
    122 H56        -0.2670   -6.5890    1.5290 ho        1 MOL      0.427189
    123 H57         1.4440   -4.2220    1.8220 hc        1 MOL     -0.036894
    124 H58         0.1530   -3.1180    1.1800 hc        1 MOL     -0.036894
    125 H59        -0.1860   -4.2350    2.3670 hc        1 MOL     -0.036894
    126 N11        -1.0970   -3.9420   -2.1940 n         1 MOL     -0.618038
    127 C39        -1.9910   -3.0900   -2.8950 c3        1 MOL      0.056124
    128 C40        -3.4530   -3.3410   -2.5380 c         1 MOL      0.559518
    129 O19        -3.8360   -4.4900   -2.1200 o         1 MOL     -0.533515
    130 C41        -1.8300   -3.1210   -4.4320 c3        1 MOL      0.319682
    131 C42        -1.8860   -4.5710   -5.1000 c3        1 MOL     -0.343811
    132 O20        -0.6560   -2.3820   -4.7120 oh        1 MOL     -0.625745
    133 H60        -1.4660   -4.8560   -1.9690 hn        1 MOL      0.287162
    134 H61        -1.8260   -2.0740   -2.5320 h1        1 MOL      0.113676
    135 H62        -2.6980   -2.6170   -4.8670 h1        1 MOL     -0.006210
    136 H63         0.0580   -3.0040   -4.8390 ho        1 MOL      0.437670
    137 H64        -0.9830   -5.1070   -4.7900 hc        1 MOL      0.097747
    138 H65        -2.7690   -5.0770   -4.7060 hc        1 MOL      0.097747
    139 H66        -1.9620   -4.5800   -6.1850 hc        1 MOL      0.097747
    140 N12        -4.3700   -2.3720   -2.5500 n         1 MOL     -0.490437
    141 C43        -5.8620   -2.4090   -2.2070 c3        1 MOL     -0.102824
    142 C44        -6.0570   -2.5780   -0.6470 c         1 MOL      0.655692
    143 O21        -7.1600   -2.9480   -0.2030 o         1 MOL     -0.576797
    144 C45        -6.7480   -1.4090   -2.9630 c3        1 MOL     -0.174329
    145 C46        -6.2850    0.0460   -2.7070 c3        1 MOL      0.185105
    146 C47        -7.0760    1.0610   -3.4370 c3        1 MOL      0.043891
    147 C48        -6.9570    0.9660   -4.9840 c3        1 MOL     -0.123137
    148 N13        -7.8760    1.9880   -5.5360 n4        1 MOL     -0.019321
    149 H67        -4.0320   -1.4390   -2.7280 hn        1 MOL      0.236383
    150 H68        -6.2720   -3.3590   -2.5270 h1        1 MOL      0.146859
    151 H69        -7.8040   -1.4850   -2.6760 hc        1 MOL      0.094181
    152 H70        -6.8440   -1.7040   -4.0030 hc        1 MOL      0.094181
    153 H71        -5.3010    0.1810   -3.1490 hc        1 MOL     -0.015901
    154 H72        -6.1530    0.2180   -1.6330 hc        1 MOL     -0.015901
    155 H73        -6.5890    2.0200   -3.2300 hc        1 MOL     -0.016314
    156 H74        -8.1200    1.0540   -3.1400 hc        1 MOL     -0.016314
    157 H75        -7.3060   -0.0100   -5.3100 hx        1 MOL      0.084917
    158 H76        -5.9090    1.1140   -5.2200 hx        1 MOL      0.084917
    159 H77        -7.4040    2.8670   -5.4080 hn        1 MOL      0.203125
    160 H78        -8.0670    1.9090   -6.5300 hn        1 MOL      0.203125
    161 H79        -8.7480    2.0980   -5.0360 hn        1 MOL      0.203125
    162 N14        -5.0360   -2.4090    0.2090 n         1 MOL     -0.415973
    163 C49        -5.1430   -2.5880    1.6320 c3        1 MOL     -0.267306
    164 C50        -5.8340   -1.3460    2.2780 c         1 MOL      0.469813
    165 O22        -5.3140   -0.1960    2.1620 o         1 MOL     -0.463236
    166 C51        -3.7940   -3.0100    2.2040 c3        1 MOL      0.080515
    167 C52        -3.6560   -3.0830    3.6660 c3        1 MOL     -0.470090
    168 C53        -2.1940   -3.3810    4.0240 c         1 MOL      0.788984
    169 O23        -1.9470   -4.5850    4.3550 o         1 MOL     -0.703645
    170 O24        -1.2990   -2.5310    4.0190 o         1 MOL     -0.703645
    171 H80        -4.1810   -1.9870   -0.1290 hn        1 MOL      0.320184
    172 H81        -5.7640   -3.4720    1.7870 h1        1 MOL      0.174924
    173 H82        -3.0980   -2.2890    1.7650 hc        1 MOL      0.083459
    174 H83        -3.5840   -3.9970    1.7910 hc        1 MOL      0.083459
    175 H84        -4.2550   -3.9140    4.0240 hc        1 MOL      0.106214
    176 H85        -3.8880   -2.1230    4.1490 hc        1 MOL      0.106214
    177 N15        -6.9610   -1.5570    2.9200 n         1 MOL     -0.273073
    178 C54        -7.8260   -0.4730    3.4440 c3        1 MOL     -0.141142
    179 H86        -7.8420   -0.5150    4.5340 h1        1 MOL      0.096194
    180 H87        -7.4340    0.4930    3.1250 h1        1 MOL      0.096194
    181 H88        -8.8400   -0.5980    3.0620 h1        1 MOL      0.096194
    182 H89        -7.2730   -2.5160    2.8900 hn        1 MOL      0.260905
    183 Ca1        -0.0170   -0.3950    4.0520 Ca        1 MOL      1.801413
    184 O25         0.4860   -2.6510    6.0290 oh        1 MOL     -0.842164
    185 O26         1.9190   -2.1870    3.7230 oh        1 MOL     -0.842164
    186 H90        -0.0190   -3.2240    5.4380 ho        1 MOL      0.408601
    187 H91         2.5380   -2.3070    3.0030 ho        1 MOL      0.408601
    188 H92         1.1500   -3.2300    6.3970 ho        1 MOL      0.408601
    189 H93         1.7780   -3.0700    4.0640 ho        1 MOL      0.408601
    190 O27        -2.2200   -0.2840    5.9030 oh        1 MOL     -0.842164
    191 H94        -3.1500   -0.1990    5.6900 ho        1 MOL      0.408601
    192 H95        -2.1750   -1.0480    6.4720 ho        1 MOL      0.408601
    193 O28        -2.4340    0.1610    2.7160 oh        1 MOL     -0.842164
    194 H96        -3.3320   -0.1690    2.7720 ho        1 MOL      0.408601
    195 H97        -2.1510   -0.0670    1.8360 ho        1 MOL      0.408601
    196 O29        -0.5210    2.2170    3.8620 oh        1 MOL     -0.842164
    197 H98        -1.3090    2.7100    3.6310 ho        1 MOL      0.408601
    198 H99         0.0870    2.8820    4.1930 ho        1 MOL      0.408601
@<TRIPOS>BOND
     1    1    2 1   
     2    1    4 1   
     3    1    5 1   
     4    1    6 1   
     5    2    3 2   
     6    2    7 1   
     7    7    8 1   
     8    7   15 1   
     9    8    9 1   
    10    8   11 1   
    11    8   16 1   
    12    9   10 2   
    13    9   19 1   
    14   11   12 1   
    15   11   17 1   
    16   11   18 1   
    17   12   13 1   
    18   12   14 1   
    19   19   20 1   
    20   19   28 1   
    21   20   21 1   
    22   20   23 1   
    23   20   29 1   
    24   21   22 2   
    25   21   41 1   
    26   23   24 1   
    27   23   30 1   
    28   23   31 1   
    29   24   25 1   
    30   24   32 1   
    31   24   33 1   
    32   25   26 1   
    33   25   34 1   
    34   25   35 1   
    35   26   27 1   
    36   26   36 1   
    37   26   37 1   
    38   27   38 1   
    39   27   39 1   
    40   27   40 1   
    41   41   42 1   
    42   41   49 1   
    43   42   43 1   
    44   42   45 1   
    45   42   50 1   
    46   43   44 2   
    47   43   53 1   
    48   45   46 1   
    49   45   51 1   
    50   45   52 1   
    51   46   47 1   
    52   46   48 1   
    53   53   54 1   
    54   53   57 1   
    55   54   55 1   
    56   54   58 1   
    57   54   59 1   
    58   55   56 2   
    59   55   60 1   
    60   60   61 1   
    61   60   68 1   
    62   61   62 1   
    63   61   64 1   
    64   61   69 1   
    65   62   63 2   
    66   62   72 1   
    67   64   65 1   
    68   64   70 1   
    69   64   71 1   
    70   65   66 1   
    71   65   67 1   
    72   72   73 1   
    73   72   76 1   
    74   73   74 1   
    75   73   77 1   
    76   73   78 1   
    77   74   75 2   
    78   74   79 1   
    79   79   80 1   
    80   79   86 1   
    81   80   81 1   
    82   80   83 1   
    83   80   87 1   
    84   81   82 2   
    85   81   93 1   
    86   83   84 1   
    87   83   85 1   
    88   83   88 1   
    89   84   90 1   
    90   84   91 1   
    91   84   92 1   
    92   85   89 1   
    93   93   94 1   
    94   93  101 1   
    95   94   95 1   
    96   94   97 1   
    97   94  102 1   
    98   95   96 2   
    99   95  112 1   
   100   97   98 1   
   101   97   99 1   
   102   97  103 1   
   103   98  100 1   
   104   98  104 1   
   105   98  105 1   
   106   99  106 1   
   107   99  107 1   
   108   99  108 1   
   109  100  109 1   
   110  100  110 1   
   111  100  111 1   
   112  112  113 1   
   113  112  119 1   
   114  113  114 1   
   115  113  116 1   
   116  113  120 1   
   117  114  115 2   
   118  114  126 1   
   119  116  117 1   
   120  116  118 1   
   121  116  121 1   
   122  117  123 1   
   123  117  124 1   
   124  117  125 1   
   125  118  122 1   
   126  126  127 1   
   127  126  133 1   
   128  127  128 1   
   129  127  130 1   
   130  127  134 1   
   131  128  129 2   
   132  128  140 1   
   133  130  131 1   
   134  130  132 1   
   135  130  135 1   
   136  131  137 1   
   137  131  138 1   
   138  131  139 1   
   139  132  136 1   
   140  140  141 1   
   141  140  149 1   
   142  141  142 1   
   143  141  144 1   
   144  141  150 1   
   145  142  143 2   
   146  142  162 1   
   147  144  145 1   
   148  144  151 1   
   149  144  152 1   
   150  145  146 1   
   151  145  153 1   
   152  145  154 1   
   153  146  147 1   
   154  146  155 1   
   155  146  156 1   
   156  147  148 1   
   157  147  157 1   
   158  147  158 1   
   159  148  159 1   
   160  148  160 1   
   161  148  161 1   
   162  162  163 1   
   163  162  171 1   
   164  163  164 1   
   165  163  166 1   
   166  163  172 1   
   167  164  165 2   
   168  164  177 1   
   169  166  167 1   
   170  166  173 1   
   171  166  174 1   
   172  167  168 1   
   173  167  175 1   
   174  167  176 1   
   175  168  169 1   
   176  168  170 1   
   177  177  178 1   
   178  177  182 1   
   179  178  179 1   
   180  178  180 1   
   181  178  181 1   
   182  184  186 1   
   183  184  188 1   
   184  185  187 1   
   185  185  189 1   
   186  190  191 1   
   187  190  192 1   
   188  193  194 1   
   189  193  195 1   
   190  196  197 1   
   191  196  198 1   
@<TRIPOS>SUBSTRUCTURE
     1 MOL         1 TEMP              0 ****  ****    0 ROOT
