@<TRIPOS>MOLECULE
MOL
  178   175     1     0     0
SMALL
resp


@<TRIPOS>ATOM
      1 C1          4.9390   -1.6520    2.9140 c3        1 MOL     -0.542764
      2 C2          6.2630   -0.9590    2.6280 c         1 MOL      0.682894
      3 O1          6.2670    0.2150    2.2530 o         1 MOL     -0.581807
      4 H1          4.8740   -1.8850    3.9770 hc        1 MOL      0.148978
      5 H2          4.1160   -0.9940    2.6360 hc        1 MOL      0.148978
      6 H3          4.8780   -2.5740    2.3370 hc        1 MOL      0.148978
      7 N1          7.3880   -1.7050    2.6920 n         1 MOL     -0.530498
      8 C3          8.7530   -1.1120    2.4250 c3        1 MOL      0.120863
      9 C4          9.0020   -0.8250    0.8860 c         1 MOL      0.578727
     10 O2          9.0590   -1.6610    0.0370 o         1 MOL     -0.519913
     11 C5          9.8300   -2.2350    2.7780 c3        1 MOL     -0.333242
     12 C6         11.2410   -1.7130    2.4780 c         1 MOL      0.739924
     13 O3         11.4700   -0.4820    2.2720 o         1 MOL     -0.733211
     14 O4         12.1170   -2.6480    2.4390 o         1 MOL     -0.733211
     15 H4          7.3540   -2.7020    2.8360 hn        1 MOL      0.295691
     16 H5          8.8910   -0.2350    3.0450 h1        1 MOL      0.045858
     17 H6          9.7630   -3.1190    2.1580 hc        1 MOL      0.070745
     18 H7          9.7260   -2.4100    3.8560 hc        1 MOL      0.070745
     19 N2          9.0450    0.4690    0.5290 n         1 MOL     -0.341443
     20 C7          8.9870    0.7790   -0.8830 c3        1 MOL      0.165508
     21 C8          7.6850    0.2540   -1.5310 c         1 MOL      0.456031
     22 O5          7.6640    0.0920   -2.7410 o         1 MOL     -0.564224
     23 C9          9.1560    2.3620   -0.9860 c3        1 MOL     -0.347105
     24 H8          9.0860    1.2310    1.1980 hn        1 MOL      0.226793
     25 H9          9.8090    0.3080   -1.4140 h1        1 MOL      0.055326
     26 H10         8.3600    2.7960   -0.3870 hc        1 MOL      0.088991
     27 H11        10.1840    2.5110   -0.6820 hc        1 MOL      0.088991
     28 H12         9.0530    2.7180   -2.0200 hc        1 MOL      0.088991
     29 N3          6.6060    0.1010   -0.7470 n         1 MOL     -0.257484
     30 C10         5.2940   -0.4610   -1.0920 c3        1 MOL     -0.120933
     31 C11         4.5630    0.0060   -2.3740 c         1 MOL      0.655421
     32 O6          3.8430   -0.7260   -3.0550 o         1 MOL     -0.486086
     33 C12         5.3600   -1.9720   -0.9860 c3        1 MOL      0.171008
     34 C13         4.0280   -2.6830   -0.8700 c         1 MOL      0.594268
     35 O7          3.9540   -3.8830   -1.2640 o         1 MOL     -0.744257
     36 O8          3.0620   -2.1280   -0.4020 o         1 MOL     -0.744257
     37 H13         6.8390    0.3150    0.2140 hn        1 MOL      0.145078
     38 H14         4.7100   -0.1800   -0.2220 h1        1 MOL      0.086219
     39 H15         6.0990   -2.2020   -0.2170 hc        1 MOL     -0.028186
     40 H16         5.7950   -2.3960   -1.8860 hc        1 MOL     -0.028186
     41 N4          4.6870    1.2780   -2.7650 n         1 MOL     -0.555480
     42 C14         4.3540    1.8540   -4.1100 c3        1 MOL      0.104484
     43 C15         3.0660    2.7160   -4.1950 c         1 MOL      0.574665
     44 O9          2.9770    3.7080   -4.9280 o         1 MOL     -0.585799
     45 H17         5.3040    1.8630   -2.2020 hn        1 MOL      0.300554
     46 H18         4.3400    1.0640   -4.8680 h1        1 MOL      0.032787
     47 H19         5.0550    2.6320   -4.4170 h1        1 MOL      0.032787
     48 N5          2.0660    2.3060   -3.3570 n         1 MOL     -0.332315
     49 C16         0.7910    2.9100   -3.3120 c3        1 MOL      0.033763
     50 C17         0.7920    4.2000   -2.4200 c         1 MOL      0.655560
     51 O10         1.5070    4.2180   -1.4620 o         1 MOL     -0.576227
     52 C18        -0.3120    1.9490   -2.7740 c3        1 MOL     -0.297885
     53 C19        -0.5260    0.6900   -3.6250 c         1 MOL      0.689434
     54 N6         -0.1570   -0.4710   -3.2270 n         1 MOL     -0.759861
     55 O11        -0.8340    0.8300   -4.7700 o         1 MOL     -0.621519
     56 H20         2.1200    1.4200   -2.8720 hn        1 MOL      0.194472
     57 H21         0.5230    3.2170   -4.3210 h1        1 MOL      0.045360
     58 H22        -1.2570    2.4460   -2.5840 hc        1 MOL      0.092817
     59 H23        -0.0410    1.5940   -1.7820 hc        1 MOL      0.092817
     60 H24         0.2050   -0.5490   -2.2840 hn        1 MOL      0.379677
     61 H25        -0.1730   -1.3150   -3.7720 hn        1 MOL      0.379677
     62 N7          0.0880    5.2060   -2.7880 n         1 MOL     -0.454138
     63 C20        -0.0460    6.4640   -2.0370 c3        1 MOL     -0.029869
     64 C21        -1.3250    6.4730   -1.1160 c         1 MOL      0.589767
     65 O12        -2.2990    5.7470   -1.4760 o         1 MOL     -0.533391
     66 H26        -0.6560    5.1200   -3.4690 hn        1 MOL      0.274169
     67 H27        -0.2150    7.2460   -2.7760 h1        1 MOL      0.075160
     68 H28         0.8830    6.7840   -1.5790 h1        1 MOL      0.075160
     69 N8         -1.3240    7.1000    0.0240 n         1 MOL     -0.559162
     70 C22        -2.4930    7.2060    0.9300 c3        1 MOL     -0.035235
     71 C23        -2.7430    5.9570    1.8090 c         1 MOL      0.485212
     72 O13        -3.7870    6.0100    2.4980 o         1 MOL     -0.563641
     73 C24        -2.3980    8.3820    1.8510 c3        1 MOL      0.393134
     74 C25        -1.1530    8.3090    2.7680 c3        1 MOL     -0.337317
     75 O14        -2.2580    9.5660    1.0510 oh        1 MOL     -0.656150
     76 H29        -0.4690    7.4380    0.4430 hn        1 MOL      0.279406
     77 H30        -3.4420    7.3550    0.4160 h1        1 MOL      0.116814
     78 H31        -3.3000    8.4720    2.4530 h1        1 MOL      0.064973
     79 H32        -1.4950    9.5690    0.4710 ho        1 MOL      0.389449
     80 H33        -1.1410    7.4440    3.4310 hc        1 MOL      0.082611
     81 H34        -0.1910    8.2820    2.2640 hc        1 MOL      0.082611
     82 H35        -1.1000    9.1710    3.4460 hc        1 MOL      0.082611
     83 N9         -1.8810    4.9420    1.7270 n         1 MOL     -0.274071
     84 C26        -2.0870    3.6450    2.4130 c3        1 MOL     -0.190783
     85 C27        -1.6010    2.4900    1.4850 c         1 MOL      0.578925
     86 O15        -0.6190    2.6680    0.8070 o         1 MOL     -0.481021
     87 C28        -1.4620    3.4870    3.7890 c3        1 MOL      0.204056
     88 C29         0.0660    3.8080    3.9740 c3        1 MOL      0.094534
     89 C30        -2.2480    4.2820    4.8470 c3        1 MOL     -0.380851
     90 C31         0.5980    3.2230    5.2580 c3        1 MOL     -0.223114
     91 H36        -1.0560    4.9330    1.1570 hn        1 MOL      0.218395
     92 H37        -3.1730    3.5400    2.4280 h1        1 MOL      0.123368
     93 H38        -1.6170    2.4290    4.0040 hc        1 MOL     -0.016438
     94 H39         0.2140    4.8810    4.0340 hc        1 MOL      0.017822
     95 H40         0.6550    3.3240    3.1960 hc        1 MOL      0.017822
     96 H41        -3.3040    4.0150    4.7440 hc        1 MOL      0.089181
     97 H42        -1.9480    4.1740    5.8950 hc        1 MOL      0.089181
     98 H43        -2.1360    5.3380    4.5890 hc        1 MOL      0.089181
     99 H44         0.5860    2.1410    5.1080 hc        1 MOL      0.051298
    100 H45         1.6000    3.5900    5.4810 hc        1 MOL      0.051298
    101 H46        -0.0910    3.5110    6.0630 hc        1 MOL      0.051298
    102 N10        -2.2470    1.3350    1.5500 n         1 MOL     -0.537948
    103 C32        -1.9790    0.2610    0.6350 c3        1 MOL      0.400901
    104 C33        -3.2930   -0.3420    0.0010 c         1 MOL      0.346966
    105 O16        -3.3850   -1.5320   -0.3510 o         1 MOL     -0.405968
    106 C34        -1.0070   -0.6970    1.3930 c3        1 MOL     -0.165042
    107 C35        -0.3580   -1.7370    0.5240 c         1 MOL      0.652236
    108 O17        -0.1180   -2.8660    1.0120 o         1 MOL     -0.684671
    109 O18        -0.1490   -1.5580   -0.6680 o         1 MOL     -0.684671
    110 H47        -3.0500    1.3400    2.1500 hn        1 MOL      0.270175
    111 H48        -1.3790    0.6500   -0.1930 h1        1 MOL     -0.035149
    112 H49        -1.5950   -1.2680    2.1160 hc        1 MOL      0.050460
    113 H50        -0.2550   -0.1530    1.9630 hc        1 MOL      0.050460
    114 N11        -4.4390    0.3870   -0.1170 n         1 MOL     -0.412104
    115 C36        -5.6930   -0.1530   -0.6520 c3        1 MOL      0.185190
    116 C37        -6.3400   -1.2190    0.2830 c         1 MOL      0.265710
    117 O19        -6.4780   -1.1850    1.4950 o         1 MOL     -0.558734
    118 C38        -6.6610    1.0250   -0.7660 c3        1 MOL     -0.123147
    119 C39        -8.0640    0.7160   -1.2000 ca        1 MOL     -0.011883
    120 C40        -8.3350    0.7480   -2.5950 ca        1 MOL     -0.099661
    121 C41        -9.0390    0.1560   -0.3580 ca        1 MOL     -0.099661
    122 C42        -9.5040    0.2770   -3.1010 ca        1 MOL     -0.151413
    123 C43       -10.2180   -0.3820   -0.8090 ca        1 MOL     -0.151413
    124 C44       -10.4460   -0.3990   -2.2360 ca        1 MOL     -0.087870
    125 H51        -4.3890    1.3860    0.0400 hn        1 MOL      0.232339
    126 H52        -5.4870   -0.5490   -1.6490 h1        1 MOL      0.052435
    127 H53        -6.2930    1.6120   -1.6060 hc        1 MOL      0.068486
    128 H54        -6.5510    1.6970    0.0870 hc        1 MOL      0.068486
    129 H55        -7.5750    1.1340   -3.2580 ha        1 MOL      0.108865
    130 H56        -8.7430    0.1830    0.6750 ha        1 MOL      0.108865
    131 H57        -9.6070    0.2080   -4.1800 ha        1 MOL      0.119423
    132 H58       -10.9520   -0.8450   -0.1690 ha        1 MOL      0.119423
    133 H59       -11.3400   -0.8520   -2.6580 ha        1 MOL      0.098709
    134 N12        -6.8170   -2.3160   -0.2970 n         1 MOL      0.290429
    135 C45        -7.5490   -3.4460    0.4380 c3        1 MOL     -0.130231
    136 C46        -6.5370   -4.2920    1.2080 c         1 MOL      0.435581
    137 O20        -7.0060   -5.0710    2.0670 o         1 MOL     -0.550429
    138 C47        -8.2300   -4.2690   -0.6220 c3        1 MOL     -0.011058
    139 C48        -7.3120   -4.0650   -1.8560 c3        1 MOL     -0.032886
    140 C49        -6.6110   -2.7170   -1.6670 c3        1 MOL     -0.242053
    141 H60        -8.2990   -3.0250    1.1060 h1        1 MOL      0.098652
    142 H61        -8.3950   -5.3280   -0.4060 hc        1 MOL      0.022243
    143 H62        -9.1000   -3.6920   -0.9260 hc        1 MOL      0.022243
    144 H63        -6.5820   -4.8740   -1.7480 hc        1 MOL      0.039281
    145 H64        -7.8110   -4.2340   -2.8080 hc        1 MOL      0.039281
    146 H65        -5.5340   -2.7190   -1.8570 h1        1 MOL      0.068557
    147 H66        -7.0520   -1.9960   -2.3520 h1        1 MOL      0.068557
    148 N13        -5.2150   -4.0660    1.1310 n         1 MOL     -0.109165
    149 C50        -4.2300   -4.7360    1.9120 c3        1 MOL     -0.253706
    150 C51        -4.0300   -4.0670    3.2850 c         1 MOL      0.411977
    151 O21        -3.4150   -4.7260    4.1250 o         1 MOL     -0.519604
    152 C52        -2.9320   -4.6610    1.1290 c3        1 MOL      0.186193
    153 C53        -2.8010   -5.2500   -0.3040 c3        1 MOL     -0.059340
    154 C54        -1.3380   -5.2770   -0.8290 c         1 MOL      0.587297
    155 O22        -1.0420   -4.6640   -1.8420 o         1 MOL     -0.728580
    156 O23        -0.3930   -5.7760   -0.1090 o         1 MOL     -0.728580
    157 H67        -4.8850   -3.4230    0.4310 hn        1 MOL      0.085874
    158 H68        -4.5290   -5.7580    2.1290 h1        1 MOL      0.150066
    159 H69        -2.1730   -5.2010    1.6970 hc        1 MOL      0.001117
    160 H70        -2.5340   -3.6540    1.0320 hc        1 MOL      0.001117
    161 H71        -3.4210   -4.6420   -0.9530 hc        1 MOL     -0.009380
    162 H72        -3.2340   -6.2480   -0.2670 hc        1 MOL     -0.009380
    163 N14        -4.3600   -2.7880    3.4340 n         1 MOL     -0.108221
    164 C55        -4.2830   -2.0490    4.7100 c3        1 MOL     -0.202653
    165 H73        -3.6740   -2.6100    5.4190 h1        1 MOL      0.081269
    166 H74        -3.8300   -1.0730    4.5380 h1        1 MOL      0.081269
    167 H75        -5.2860   -1.9180    5.1160 h1        1 MOL      0.081269
    168 H76        -4.8460   -2.2160    2.7610 hn        1 MOL      0.187115
    169 Ca1         1.3200   -3.9080   -0.8870 Ca        1 MOL      1.765963
    170 O24         2.4510   -5.3230    1.1880 oh        1 MOL     -0.832748
    171 H77         3.3590   -5.5650    0.9730 ho        1 MOL      0.408024
    172 H78         2.2690   -5.7700    2.0060 ho        1 MOL      0.408024
    173 O25         1.7100   -3.2940   -3.4810 oh        1 MOL     -0.832748
    174 H79         2.5160   -3.6210   -3.8830 ho        1 MOL      0.408024
    175 H80         1.0760   -3.2830   -4.2000 ho        1 MOL      0.408024
    176 O26         2.2430   -6.1010   -1.9890 oh        1 MOL     -0.832748
    177 H81         2.5960   -6.8510   -1.5060 ho        1 MOL      0.408024
    178 H82         2.0480   -6.4480   -2.8560 ho        1 MOL      0.408024
@<TRIPOS>BOND
     1    1    2 1   
     2    1    4 1   
     3    1    5 1   
     4    1    6 1   
     5    2    3 2   
     6    2    7 1   
     7    7    8 1   
     8    7   15 1   
     9    8    9 1   
    10    8   11 1   
    11    8   16 1   
    12    9   10 2   
    13    9   19 1   
    14   11   12 1   
    15   11   17 1   
    16   11   18 1   
    17   12   13 1   
    18   12   14 1   
    19   19   20 1   
    20   19   24 1   
    21   20   21 1   
    22   20   23 1   
    23   20   25 1   
    24   21   22 2   
    25   21   29 1   
    26   23   26 1   
    27   23   27 1   
    28   23   28 1   
    29   29   30 1   
    30   29   37 1   
    31   30   31 1   
    32   30   33 1   
    33   30   38 1   
    34   31   32 2   
    35   31   41 1   
    36   33   34 1   
    37   33   39 1   
    38   33   40 1   
    39   34   35 1   
    40   34   36 1   
    41   41   42 1   
    42   41   45 1   
    43   42   43 1   
    44   42   46 1   
    45   42   47 1   
    46   43   44 2   
    47   43   48 1   
    48   48   49 1   
    49   48   56 1   
    50   49   50 1   
    51   49   52 1   
    52   49   57 1   
    53   50   51 2   
    54   50   62 1   
    55   52   53 1   
    56   52   58 1   
    57   52   59 1   
    58   53   54 1   
    59   53   55 2   
    60   54   60 1   
    61   54   61 1   
    62   62   63 1   
    63   62   66 1   
    64   63   64 1   
    65   63   67 1   
    66   63   68 1   
    67   64   65 2   
    68   64   69 1   
    69   69   70 1   
    70   69   76 1   
    71   70   71 1   
    72   70   73 1   
    73   70   77 1   
    74   71   72 2   
    75   71   83 1   
    76   73   74 1   
    77   73   75 1   
    78   73   78 1   
    79   74   80 1   
    80   74   81 1   
    81   74   82 1   
    82   75   79 1   
    83   83   84 1   
    84   83   91 1   
    85   84   85 1   
    86   84   87 1   
    87   84   92 1   
    88   85   86 2   
    89   85  102 1   
    90   87   88 1   
    91   87   89 1   
    92   87   93 1   
    93   88   90 1   
    94   88   94 1   
    95   88   95 1   
    96   89   96 1   
    97   89   97 1   
    98   89   98 1   
    99   90   99 1   
   100   90  100 1   
   101   90  101 1   
   102  102  103 1   
   103  102  110 1   
   104  103  104 1   
   105  103  106 1   
   106  103  111 1   
   107  104  105 2   
   108  104  114 1   
   109  106  107 1   
   110  106  112 1   
   111  106  113 1   
   112  107  108 1   
   113  107  109 1   
   114  114  115 1   
   115  114  125 1   
   116  115  116 1   
   117  115  118 1   
   118  115  126 1   
   119  116  117 2   
   120  116  134 1   
   121  118  119 1   
   122  118  127 1   
   123  118  128 1   
   124  119  120 ar  
   125  119  121 ar  
   126  120  122 ar  
   127  120  129 1   
   128  121  123 ar  
   129  121  130 1   
   130  122  124 ar  
   131  122  131 1   
   132  123  124 ar  
   133  123  132 1   
   134  124  133 1   
   135  134  135 1   
   136  134  140 1   
   137  135  136 1   
   138  135  138 1   
   139  135  141 1   
   140  136  137 2   
   141  136  148 1   
   142  138  139 1   
   143  138  142 1   
   144  138  143 1   
   145  139  140 1   
   146  139  144 1   
   147  139  145 1   
   148  140  146 1   
   149  140  147 1   
   150  148  149 1   
   151  148  157 1   
   152  149  150 1   
   153  149  152 1   
   154  149  158 1   
   155  150  151 2   
   156  150  163 1   
   157  152  153 1   
   158  152  159 1   
   159  152  160 1   
   160  153  154 1   
   161  153  161 1   
   162  153  162 1   
   163  154  155 1   
   164  154  156 1   
   165  163  164 1   
   166  163  168 1   
   167  164  165 1   
   168  164  166 1   
   169  164  167 1   
   170  170  171 1   
   171  170  172 1   
   172  173  174 1   
   173  173  175 1   
   174  176  177 1   
   175  176  178 1   
@<TRIPOS>SUBSTRUCTURE
     1 MOL         1 TEMP              0 ****  ****    0 ROOT
