@<TRIPOS>MOLECULE
MOL
  189   185     1     0     0
SMALL
resp


@<TRIPOS>ATOM
      1 C1          9.3280    1.8720    0.4570 c3        1 MOL     -0.465839
      2 C2          8.2160    1.0450   -0.1360 c         1 MOL      0.741385
      3 O1          7.1630    0.9440    0.4690 o         1 MOL     -0.653361
      4 H1          9.6160    2.6510   -0.2480 hc        1 MOL      0.121590
      5 H2          8.9840    2.3310    1.3840 hc        1 MOL      0.121590
      6 H3         10.1860    1.2330    0.6640 hc        1 MOL      0.121590
      7 N1          8.5740    0.3710   -1.2630 n         1 MOL     -0.436860
      8 C3          7.8280   -0.4420   -2.2560 c3        1 MOL     -0.068348
      9 C4          7.4000   -1.7590   -1.5940 c         1 MOL      0.525594
     10 O2          7.5530   -2.8110   -2.2330 o         1 MOL     -0.446289
     11 C5          8.6900   -0.6550   -3.4810 c3        1 MOL     -0.200750
     12 C6         10.0450   -1.3950   -3.3510 c         1 MOL      0.665842
     13 O3         10.9310   -0.7770   -2.6950 o         1 MOL     -0.618172
     14 O4         10.4390   -2.2920   -4.1130 o         1 MOL     -0.618172
     15 H4          9.5530    0.4600   -1.4930 hn        1 MOL      0.184901
     16 H5          6.8980    0.0950   -2.4860 h1        1 MOL      0.106983
     17 H6          8.8990    0.3130   -3.9300 hc        1 MOL      0.087677
     18 H7          8.0930   -1.2630   -4.1560 hc        1 MOL      0.087677
     19 N2          6.9310   -1.6920   -0.3000 n         1 MOL     -0.449039
     20 C7          6.4680   -2.9240    0.4730 c3        1 MOL      0.116969
     21 C8          5.0180   -3.2070    0.0510 c         1 MOL      0.458622
     22 O5          4.7540   -4.3010   -0.4540 o         1 MOL     -0.526659
     23 C9          6.6940   -2.8460    2.0950 c3        1 MOL     -0.171032
     24 C10         8.1470   -2.9620    2.3840 c3        1 MOL      0.219483
     25 C11         8.6190   -2.3860    3.6590 c3        1 MOL     -0.179776
     26 C12        10.2000   -2.3140    3.7310 c3        1 MOL      0.190931
     27 N3         10.6920   -2.0600    5.0780 n4        1 MOL     -0.260943
     28 H8          6.7110   -0.7940    0.1000 hn        1 MOL      0.315422
     29 H9          6.9840   -3.8220    0.1190 h1        1 MOL      0.056626
     30 H10         6.1990   -3.6840    2.6000 hc        1 MOL      0.054754
     31 H11         6.2380   -1.9270    2.4580 hc        1 MOL      0.054754
     32 H12         8.5870   -2.3330    1.6150 hc        1 MOL     -0.018151
     33 H13         8.5490   -3.9610    2.1730 hc        1 MOL     -0.018151
     34 H14         8.2120   -2.8580    4.5520 hc        1 MOL      0.035125
     35 H15         8.4610   -1.3100    3.7510 hc        1 MOL      0.035125
     36 H16        10.6110   -1.6530    2.9770 hx        1 MOL      0.031136
     37 H17        10.5950   -3.3180    3.5240 hx        1 MOL      0.031136
     38 H18        10.3900   -2.8150    5.6720 hn        1 MOL      0.255737
     39 H19        11.6990   -1.9370    5.0810 hn        1 MOL      0.255737
     40 H20        10.3210   -1.2080    5.4720 hn        1 MOL      0.255737
     41 N4          3.9830   -2.3300    0.1650 n         1 MOL     -0.522587
     42 C13         4.1020   -0.9880    0.7340 c3        1 MOL      0.249515
     43 C14         3.8660    0.2110   -0.1580 c         1 MOL      0.189454
     44 O6          3.7240    0.1480   -1.3710 o         1 MOL     -0.360272
     45 C15         3.1360   -0.9910    1.9400 c3        1 MOL     -0.164605
     46 C16         1.7010   -1.5170    1.6520 c         1 MOL      0.668244
     47 O7          0.9850   -0.8020    0.9130 o         1 MOL     -0.669891
     48 O8          1.1660   -2.4820    2.2080 o         1 MOL     -0.669891
     49 H21         3.1330   -2.7600   -0.1730 hn        1 MOL      0.391795
     50 H22         5.0610   -0.7450    1.1990 h1        1 MOL      0.056033
     51 H23         3.0390    0.0290    2.3220 hc        1 MOL     -0.002587
     52 H24         3.6040   -1.6590    2.6540 hc        1 MOL     -0.002587
     53 N5          3.7930    1.4310    0.4080 n         1 MOL     -0.153537
     54 C17         3.8580    2.5900   -0.4340 c3        1 MOL     -0.380214
     55 C18         2.4740    2.8880   -1.0370 c         1 MOL      0.451447
     56 O9          1.4090    2.4620   -0.6330 o         1 MOL     -0.386921
     57 H25         3.9840    1.5220    1.4020 hn        1 MOL      0.245461
     58 H26         4.4990    2.4010   -1.2980 h1        1 MOL      0.164571
     59 H27         4.2360    3.3600    0.2430 h1        1 MOL      0.164571
     60 N6          2.5160    3.7240   -2.0520 n         1 MOL     -0.336496
     61 C19         1.3120    4.3190   -2.5960 c3        1 MOL      0.120511
     62 C20         1.5770    5.8160   -2.8440 c         1 MOL      0.509238
     63 O10         2.7950    6.1170   -2.9360 o         1 MOL     -0.545376
     64 C21         1.0110    3.5900   -3.8500 c3        1 MOL     -0.130897
     65 C22         0.6980    2.1470   -3.5710 c         1 MOL      0.694580
     66 O11        -0.3620    1.8870   -2.9640 o         1 MOL     -0.702576
     67 O12         1.4710    1.2750   -3.9760 o         1 MOL     -0.702576
     68 H28         3.4240    3.9210   -2.4430 hn        1 MOL      0.285049
     69 H29         0.5190    4.2840   -1.8590 h1        1 MOL      0.016039
     70 H30         1.8220    3.7300   -4.5670 hc        1 MOL      0.039069
     71 H31         0.1240    3.9660   -4.3750 hc        1 MOL      0.039069
     72 N7          0.5730    6.7250   -2.9280 n         1 MOL     -0.509653
     73 C23        -0.8680    6.4820   -2.8510 c3        1 MOL     -0.013286
     74 C24        -1.3280    6.1460   -1.4670 c         1 MOL      0.604467
     75 O13        -0.6980    6.5280   -0.4560 o         1 MOL     -0.529754
     76 H32         0.7650    7.7170   -2.9810 hn        1 MOL      0.335695
     77 H33        -1.1810    5.6240   -3.4430 h1        1 MOL      0.069917
     78 H34        -1.4240    7.3400   -3.2400 h1        1 MOL      0.069917
     79 N8         -2.4220    5.3760   -1.3780 n         1 MOL     -0.576010
     80 C25        -2.8730    4.8460   -0.0750 c3        1 MOL      0.095690
     81 C26        -2.0420    3.7670    0.5730 c         1 MOL      0.767685
     82 O14        -1.5140    2.8240    0.0310 o         1 MOL     -0.666861
     83 C27        -4.4050    4.5120   -0.0260 c3        1 MOL      0.257029
     84 C28        -4.7920    3.5200   -1.0850 c3        1 MOL     -0.161570
     85 O15        -5.1070    5.7140   -0.2400 oh        1 MOL     -0.621273
     86 H35        -2.9890    5.1440   -2.1800 hn        1 MOL      0.319833
     87 H36        -2.8080    5.6940    0.6000 h1        1 MOL      0.071635
     88 H37        -4.7370    4.1400    0.9470 h1        1 MOL     -0.025690
     89 H38        -6.0370    5.4990   -0.2320 ho        1 MOL      0.400143
     90 H39        -5.8710    3.4760   -1.2630 hc        1 MOL      0.042608
     91 H40        -4.3260    3.6560   -2.0590 hc        1 MOL      0.042608
     92 H41        -4.5090    2.5060   -0.8000 hc        1 MOL      0.042608
     93 N9         -2.0450    3.8130    1.9110 n         1 MOL     -0.663689
     94 C29        -1.4000    2.8350    2.8010 c3        1 MOL      0.483643
     95 C30        -1.9390    1.4610    2.6340 c         1 MOL      0.235961
     96 O16        -1.9780    0.8750    1.5630 o         1 MOL     -0.391586
     97 C31         0.1440    2.8640    2.7670 c3        1 MOL      0.302682
     98 C32         0.7770    4.2640    2.9130 c3        1 MOL     -0.087544
     99 C33         0.7970    1.7780    3.5640 c3        1 MOL     -0.137270
    100 C34         0.6810    4.8800    4.3350 c3        1 MOL     -0.522836
    101 H42        -2.4270    4.6330    2.3600 hn        1 MOL      0.275362
    102 H43        -1.6980    3.1810    3.7900 h1        1 MOL     -0.057377
    103 H44         0.3520    2.5350    1.7430 hc        1 MOL     -0.271157
    104 H45         0.2790    4.9830    2.2560 hc        1 MOL      0.086992
    105 H46         1.8330    4.2700    2.6830 hc        1 MOL      0.086992
    106 H47         0.4280    1.8190    4.5900 hc        1 MOL      0.029623
    107 H48         0.5710    0.8160    3.1180 hc        1 MOL      0.029623
    108 H49         1.8840    1.7980    3.6600 hc        1 MOL      0.029623
    109 H50        -0.2910    4.7810    4.8280 hc        1 MOL      0.126566
    110 H51         1.5390    4.5740    4.9410 hc        1 MOL      0.126566
    111 H52         0.7690    5.9580    4.2210 hc        1 MOL      0.126566
    112 N10        -2.3760    0.7970    3.7160 n         1 MOL     -0.412047
    113 C35        -2.8380   -0.5940    3.7800 c3        1 MOL     -0.205811
    114 C36        -4.1450   -0.9590    3.0930 c         1 MOL      0.495640
    115 O17        -4.5380   -2.0930    3.0810 o         1 MOL     -0.539687
    116 C37        -2.9780   -1.1150    5.2720 c3        1 MOL      0.553575
    117 C38        -4.1580   -0.6680    6.0770 c3        1 MOL     -0.392052
    118 O18        -1.8550   -0.7150    5.9540 oh        1 MOL     -0.642747
    119 H53        -2.3070    1.2370    4.6190 hn        1 MOL      0.270242
    120 H54        -2.0820   -1.2130    3.2930 h1        1 MOL      0.124773
    121 H55        -2.9240   -2.2050    5.2650 h1        1 MOL     -0.024513
    122 H56        -1.1020   -1.1950    5.6030 ho        1 MOL      0.411064
    123 H57        -4.2330   -1.2010    7.0230 hc        1 MOL      0.105031
    124 H58        -4.1400    0.3760    6.3830 hc        1 MOL      0.105031
    125 H59        -5.0920   -0.7970    5.5240 hc        1 MOL      0.105031
    126 N11        -4.8620    0.0430    2.5330 n         1 MOL     -0.265997
    127 C39        -6.1650   -0.1220    1.8220 c3        1 MOL     -0.214784
    128 C40        -5.9350   -0.9160    0.4900 c         1 MOL      0.582443
    129 O19        -5.2070   -0.4800   -0.3850 o         1 MOL     -0.505166
    130 C41        -6.9030    1.1950    1.4460 c3        1 MOL      0.326406
    131 C42        -8.2330    0.8450    0.8500 c3        1 MOL     -0.410308
    132 O20        -7.1220    1.8770    2.7090 oh        1 MOL     -0.585625
    133 H60        -4.4550    0.9640    2.5580 hn        1 MOL      0.204098
    134 H61        -6.8230   -0.7040    2.4590 h1        1 MOL      0.138308
    135 H62        -6.2930    1.7920    0.7740 h1        1 MOL      0.051875
    136 H63        -6.3550    2.4240    2.9020 ho        1 MOL      0.374284
    137 H64        -8.6050    1.7410    0.3540 hc        1 MOL      0.114450
    138 H65        -8.1880    0.0950    0.0670 hc        1 MOL      0.114450
    139 H66        -8.9860    0.6530    1.6180 hc        1 MOL      0.114450
    140 N12        -6.6880   -2.0210    0.3900 n         1 MOL     -0.395253
    141 C43        -6.7240   -2.8800   -0.7770 c3        1 MOL      0.034182
    142 C44        -5.3700   -3.2090   -1.3940 c         1 MOL      0.551627
    143 O21        -5.1760   -3.0260   -2.5830 o         1 MOL     -0.514699
    144 C45        -7.7340   -2.3550   -1.8000 c3        1 MOL     -0.235174
    145 C46        -9.1820   -2.4140   -1.3460 c3        1 MOL      0.063977
    146 C47       -10.1420   -1.8070   -2.3930 c3        1 MOL      0.043408
    147 C48       -11.5460   -1.9950   -1.8230 c3        1 MOL      0.067061
    148 N13       -12.6740   -1.8140   -2.8410 n4        1 MOL     -0.178580
    149 H67        -7.2650   -2.2170    1.1880 hn        1 MOL      0.256649
    150 H68        -7.2150   -3.7860   -0.4330 h1        1 MOL      0.064463
    151 H69        -7.7190   -2.9980   -2.6800 hc        1 MOL      0.097974
    152 H70        -7.4500   -1.3600   -2.1440 hc        1 MOL      0.097974
    153 H71        -9.3600   -1.7650   -0.4930 hc        1 MOL      0.009930
    154 H72        -9.4930   -3.4480   -1.1780 hc        1 MOL      0.009930
    155 H73       -10.0420   -2.3230   -3.3420 hc        1 MOL      0.010064
    156 H74        -9.8810   -0.7560   -2.5320 hc        1 MOL      0.010064
    157 H75       -11.7770   -1.4130   -0.9350 hx        1 MOL      0.041003
    158 H76       -11.6210   -3.0450   -1.5240 hx        1 MOL      0.041003
    159 H77       -12.4840   -1.0210   -3.4360 hn        1 MOL      0.188977
    160 H78       -12.7910   -2.6010   -3.4610 hn        1 MOL      0.188977
    161 H79       -13.5570   -1.6550   -2.3680 hn        1 MOL      0.188977
    162 N14        -4.4360   -3.7040   -0.5840 n         1 MOL     -0.485980
    163 C49        -2.9860   -3.7870   -1.0050 c3        1 MOL      0.241325
    164 C50        -1.9360   -3.0490   -0.1510 c         1 MOL      0.497961
    165 O22        -1.5660   -1.9130   -0.4810 o         1 MOL     -0.700798
    166 C51        -2.5650   -5.2440   -1.3510 c3        1 MOL     -0.092560
    167 C52        -3.2660   -5.8520   -2.5590 c3        1 MOL     -0.169359
    168 C53        -2.6140   -7.1330   -2.9750 c         1 MOL      0.708237
    169 O23        -3.2960   -8.2050   -2.7940 o         1 MOL     -0.628528
    170 O24        -1.5370   -7.1560   -3.5770 o         1 MOL     -0.628528
    171 H80        -4.6940   -3.8230    0.3840 hn        1 MOL      0.266506
    172 H81        -3.0270   -3.2180   -1.9360 h1        1 MOL      0.064291
    173 H82        -2.7720   -5.9120   -0.5060 hc        1 MOL      0.029758
    174 H83        -1.4830   -5.2750   -1.4750 hc        1 MOL      0.029758
    175 H84        -3.2150   -5.1900   -3.4140 hc        1 MOL      0.035484
    176 H85        -4.3140   -5.9940   -2.3000 hc        1 MOL      0.035484
    177 N15        -1.4240   -3.5180    0.9710 n         1 MOL     -0.235639
    178 C54        -1.6670   -4.7470    1.7630 c3        1 MOL     -0.145365
    179 H86        -2.6940   -5.0810    1.6090 h1        1 MOL      0.079187
    180 H87        -0.9790   -5.5290    1.4410 h1        1 MOL      0.079187
    181 H88        -1.5090   -4.5360    2.8200 h1        1 MOL      0.079187
    182 H89        -0.8400   -2.8160    1.3870 hn        1 MOL      0.289063
    183 Ca1        -0.4280    0.4970   -0.7750 Ca        1 MOL      1.778717
    184 O25        -2.8970    0.5170   -1.4870 oh        1 MOL     -1.014217
    185 H90        -3.5030    0.0720   -0.8940 ho        1 MOL      0.471853
    186 H91        -3.3920    0.6100   -2.3020 ho        1 MOL      0.471853
    187 O26         1.0140   -1.1440   -2.2830 oh        1 MOL     -1.014217
    188 H92         1.1730   -0.7390   -3.1370 ho        1 MOL      0.471853
    189 H93         1.0210   -2.0910   -2.4570 ho        1 MOL      0.471853
@<TRIPOS>BOND
     1    1    2 1   
     2    1    4 1   
     3    1    5 1   
     4    1    6 1   
     5    2    3 2   
     6    2    7 1   
     7    7    8 1   
     8    7   15 1   
     9    8    9 1   
    10    8   11 1   
    11    8   16 1   
    12    9   10 2   
    13    9   19 1   
    14   11   12 1   
    15   11   17 1   
    16   11   18 1   
    17   12   13 1   
    18   12   14 1   
    19   19   20 1   
    20   19   28 1   
    21   20   21 1   
    22   20   23 1   
    23   20   29 1   
    24   21   22 2   
    25   21   41 1   
    26   23   24 1   
    27   23   30 1   
    28   23   31 1   
    29   24   25 1   
    30   24   32 1   
    31   24   33 1   
    32   25   26 1   
    33   25   34 1   
    34   25   35 1   
    35   26   27 1   
    36   26   36 1   
    37   26   37 1   
    38   27   38 1   
    39   27   39 1   
    40   27   40 1   
    41   41   42 1   
    42   41   49 1   
    43   42   43 1   
    44   42   45 1   
    45   42   50 1   
    46   43   44 2   
    47   43   53 1   
    48   45   46 1   
    49   45   51 1   
    50   45   52 1   
    51   46   47 1   
    52   46   48 1   
    53   53   54 1   
    54   53   57 1   
    55   54   55 1   
    56   54   58 1   
    57   54   59 1   
    58   55   56 2   
    59   55   60 1   
    60   60   61 1   
    61   60   68 1   
    62   61   62 1   
    63   61   64 1   
    64   61   69 1   
    65   62   63 2   
    66   62   72 1   
    67   64   65 1   
    68   64   70 1   
    69   64   71 1   
    70   65   66 1   
    71   65   67 1   
    72   72   73 1   
    73   72   76 1   
    74   73   74 1   
    75   73   77 1   
    76   73   78 1   
    77   74   75 2   
    78   74   79 1   
    79   79   80 1   
    80   79   86 1   
    81   80   81 1   
    82   80   83 1   
    83   80   87 1   
    84   81   82 2   
    85   81   93 1   
    86   83   84 1   
    87   83   85 1   
    88   83   88 1   
    89   84   90 1   
    90   84   91 1   
    91   84   92 1   
    92   85   89 1   
    93   93   94 1   
    94   93  101 1   
    95   94   95 1   
    96   94   97 1   
    97   94  102 1   
    98   95   96 2   
    99   95  112 1   
   100   97   98 1   
   101   97   99 1   
   102   97  103 1   
   103   98  100 1   
   104   98  104 1   
   105   98  105 1   
   106   99  106 1   
   107   99  107 1   
   108   99  108 1   
   109  100  109 1   
   110  100  110 1   
   111  100  111 1   
   112  112  113 1   
   113  112  119 1   
   114  113  114 1   
   115  113  116 1   
   116  113  120 1   
   117  114  115 2   
   118  114  126 1   
   119  116  117 1   
   120  116  118 1   
   121  116  121 1   
   122  117  123 1   
   123  117  124 1   
   124  117  125 1   
   125  118  122 1   
   126  126  127 1   
   127  126  133 1   
   128  127  128 1   
   129  127  130 1   
   130  127  134 1   
   131  128  129 2   
   132  128  140 1   
   133  130  131 1   
   134  130  132 1   
   135  130  135 1   
   136  131  137 1   
   137  131  138 1   
   138  131  139 1   
   139  132  136 1   
   140  140  141 1   
   141  140  149 1   
   142  141  142 1   
   143  141  144 1   
   144  141  150 1   
   145  142  143 2   
   146  142  162 1   
   147  144  145 1   
   148  144  151 1   
   149  144  152 1   
   150  145  146 1   
   151  145  153 1   
   152  145  154 1   
   153  146  147 1   
   154  146  155 1   
   155  146  156 1   
   156  147  148 1   
   157  147  157 1   
   158  147  158 1   
   159  148  159 1   
   160  148  160 1   
   161  148  161 1   
   162  162  163 1   
   163  162  171 1   
   164  163  164 1   
   165  163  166 1   
   166  163  172 1   
   167  164  165 2   
   168  164  177 1   
   169  166  167 1   
   170  166  173 1   
   171  166  174 1   
   172  167  168 1   
   173  167  175 1   
   174  167  176 1   
   175  168  169 1   
   176  168  170 1   
   177  177  178 1   
   178  177  182 1   
   179  178  179 1   
   180  178  180 1   
   181  178  181 1   
   182  184  185 1   
   183  184  186 1   
   184  187  188 1   
   185  187  189 1   
@<TRIPOS>SUBSTRUCTURE
     1 MOL         1 TEMP              0 ****  ****    0 ROOT
