@<TRIPOS>MOLECULE
MOL
  195   189     1     0     0
SMALL
resp


@<TRIPOS>ATOM
      1 C1         -4.5820   -1.0310    2.7720 c3        1 MOL     -0.081260
      2 C2         -3.6460   -1.9370    1.8910 c         1 MOL      0.311981
      3 O1         -2.5490   -1.5240    1.5500 o         1 MOL     -0.370364
      4 H1         -5.3670   -0.6050    2.1470 hc        1 MOL      0.027282
      5 H2         -5.0320   -1.6320    3.5610 hc        1 MOL      0.027282
      6 H3         -3.9960   -0.2270    3.2160 hc        1 MOL      0.027282
      7 N1         -4.1600   -3.1110    1.3770 n         1 MOL     -0.251095
      8 C3         -3.4700   -4.0620    0.4490 c3        1 MOL     -0.266290
      9 C4         -1.9730   -4.2930    0.6050 c         1 MOL      0.911645
     10 O2         -1.1620   -4.4620   -0.2890 o         1 MOL     -0.579194
     11 C5         -3.7660   -3.7860   -1.0310 c3        1 MOL     -0.282243
     12 C6         -5.2910   -3.5480   -1.2570 c         1 MOL      0.880095
     13 O3         -6.0830   -4.5480   -1.1720 o         1 MOL     -0.817181
     14 O4         -5.6990   -2.4050   -1.5270 o         1 MOL     -0.817181
     15 H4         -5.0940   -3.4230    1.5910 hn        1 MOL      0.188978
     16 H5         -3.9070   -5.0290    0.6810 h1        1 MOL      0.131706
     17 H6         -3.4610   -4.6310   -1.6470 hc        1 MOL      0.118611
     18 H7         -3.1620   -2.9460   -1.3890 hc        1 MOL      0.118611
     19 N2         -1.5600   -4.3050    1.8940 n         1 MOL     -0.706960
     20 C7         -0.1870   -4.5420    2.3600 c3        1 MOL     -0.174092
     21 C8          0.2380   -6.0110    2.0140 c         1 MOL      0.611187
     22 O5         -0.5900   -6.8800    2.2140 o         1 MOL     -0.607199
     23 C9         -0.0390   -4.2890    3.8480 c3        1 MOL      0.266180
     24 C10        -0.8750   -5.1070    4.8420 c3        1 MOL     -0.102546
     25 C11        -0.2430   -2.7520    4.0950 c3        1 MOL     -0.480693
     26 C12        -0.3190   -4.8300    6.2680 c3        1 MOL     -0.153329
     27 H8         -2.2550   -3.9670    2.5450 hn        1 MOL      0.295497
     28 H9          0.4770   -3.8740    1.8050 h1        1 MOL      0.189225
     29 H10         1.0170   -4.4240    4.1150 hc        1 MOL      0.049410
     30 H11        -0.7540   -6.1820    4.6860 hc        1 MOL      0.064342
     31 H12        -1.8770   -4.7020    4.9620 hc        1 MOL      0.064342
     32 H13         0.0720   -2.5220    5.1100 hc        1 MOL      0.123115
     33 H14         0.3220   -2.1610    3.3710 hc        1 MOL      0.123115
     34 H15        -1.3110   -2.5450    3.9970 hc        1 MOL      0.123115
     35 H16        -0.6660   -3.8640    6.6320 hc        1 MOL      0.028590
     36 H17        -0.7930   -5.5290    6.9570 hc        1 MOL      0.028590
     37 H18         0.7670   -4.9760    6.3130 hc        1 MOL      0.028590
     38 N3          1.4880   -6.3150    1.6300 n         1 MOL     -0.425333
     39 C13         2.6230   -5.4290    1.3030 c3        1 MOL     -0.135597
     40 C14         3.2120   -5.9330   -0.0580 c         1 MOL      0.513297
     41 O6          3.7510   -7.0410   -0.1000 o         1 MOL     -0.534587
     42 C15         3.6110   -5.5790    2.4500 c3        1 MOL     -0.275249
     43 C16         4.9420   -4.8140    2.1800 c         1 MOL      0.775690
     44 O7          5.8690   -4.9750    3.0580 o         1 MOL     -0.742521
     45 O8          5.0850   -4.0680    1.2000 o         1 MOL     -0.742521
     46 H19         1.6050   -7.3080    1.4500 hn        1 MOL      0.296207
     47 H20         2.4150   -4.3600    1.2370 h1        1 MOL      0.091014
     48 H21         3.7460   -6.6060    2.7860 hc        1 MOL      0.077617
     49 H22         3.1720   -5.2050    3.3690 hc        1 MOL      0.077617
     50 N4          3.2300   -5.1610   -1.1240 n         1 MOL     -0.273560
     51 C17         3.8710   -5.4490   -2.4410 c3        1 MOL     -0.146804
     52 C18         5.1840   -4.7190   -2.8080 c         1 MOL      0.691724
     53 O9          5.8170   -5.1890   -3.7470 o         1 MOL     -0.614400
     54 H23         2.8220   -4.2570   -0.9410 hn        1 MOL      0.255034
     55 H24         3.1250   -5.2160   -3.2000 h1        1 MOL      0.083149
     56 H25         4.1110   -6.5070   -2.4760 h1        1 MOL      0.083149
     57 N5          5.5930   -3.6450   -2.1260 n         1 MOL     -0.421061
     58 C19         6.5800   -2.6880   -2.5290 c3        1 MOL     -0.033318
     59 C20         7.5120   -2.0880   -1.4460 c         1 MOL      0.462020
     60 O10         8.6680   -1.8650   -1.7320 o         1 MOL     -0.543843
     61 C21         5.8920   -1.5440   -3.2760 c3        1 MOL     -0.199884
     62 C22         4.6330   -0.9260   -2.6040 c         1 MOL      0.673134
     63 O11         3.5010   -1.4480   -2.8410 o         1 MOL     -0.685521
     64 O12         4.7830    0.1170   -1.8980 o         1 MOL     -0.685521
     65 H26         5.0360   -3.4710   -1.3050 hn        1 MOL      0.270225
     66 H27         7.2760   -3.0950   -3.2640 h1        1 MOL      0.098726
     67 H28         5.6250   -1.9110   -4.2590 hc        1 MOL      0.046729
     68 H29         6.6410   -0.7550   -3.3870 hc        1 MOL      0.046729
     69 N6          7.0140   -1.7370   -0.2800 n         1 MOL     -0.170563
     70 C23         7.8150   -0.9590    0.7540 c3        1 MOL     -0.164153
     71 C24         8.3080    0.4370    0.3070 c         1 MOL      0.545359
     72 O13         9.2100    0.9540    0.8830 o         1 MOL     -0.559399
     73 H30         6.1170   -2.1460   -0.0300 hn        1 MOL      0.266093
     74 H31         8.7370   -1.4860    1.0290 h1        1 MOL      0.095762
     75 H32         7.2420   -0.8590    1.6770 h1        1 MOL      0.095762
     76 N7          7.6380    0.9340   -0.7760 n         1 MOL     -0.068899
     77 C25         7.6840    2.3060   -1.3150 c3        1 MOL      0.154172
     78 C26         7.4680    3.3600   -0.2630 c         1 MOL      0.377654
     79 O14         8.0340    4.4360   -0.3520 o         1 MOL     -0.515664
     80 C27         8.8380    2.4570   -2.3110 c3        1 MOL     -0.198471
     81 C28         8.8960    1.3950   -3.4320 c3        1 MOL      0.048905
     82 C29         9.8680    1.8100   -4.5040 c         1 MOL      0.638136
     83 N8         10.0560    0.8440   -5.4530 n         1 MOL     -0.850811
     84 O15        10.5100    2.8290   -4.6010 o         1 MOL     -0.554636
     85 H33         7.1070    0.1950   -1.2120 hn        1 MOL     -0.080806
     86 H34         6.8060    2.3880   -1.9700 h1        1 MOL      0.081897
     87 H35         9.8290    2.3240   -1.8610 hc        1 MOL      0.054549
     88 H36         8.7630    3.4320   -2.7890 hc        1 MOL      0.054549
     89 H37         7.9160    1.2700   -3.8980 hc        1 MOL      0.019330
     90 H38         9.2580    0.4020   -3.2000 hc        1 MOL      0.019330
     91 H39         9.6750   -0.0810   -5.3560 hn        1 MOL      0.352789
     92 H40        10.5020    1.1280   -6.3200 hn        1 MOL      0.352789
     93 N9          6.7210    3.0610    0.7620 n         1 MOL     -0.256148
     94 C30         6.4720    3.8950    2.0060 c3        1 MOL     -0.146522
     95 C31         4.9780    4.2660    2.2590 c         1 MOL      0.582492
     96 O16         4.6210    5.0940    3.1170 o         1 MOL     -0.570734
     97 C32         7.0150    3.1630    3.2760 c3        1 MOL      0.056114
     98 C33         6.5070    1.7050    3.2960 c3        1 MOL     -0.104560
     99 C34         8.5320    3.0820    3.2330 c3        1 MOL     -0.104560
    100 H41         6.1950    2.1970    0.7370 hn        1 MOL      0.211794
    101 H42         7.0830    4.7960    1.9290 h1        1 MOL      0.135103
    102 H43         6.8370    3.5780    4.2590 hc        1 MOL      0.023227
    103 H44         6.8480    1.0460    2.4960 hc        1 MOL      0.027784
    104 H45         6.7580    1.1800    4.2260 hc        1 MOL      0.027784
    105 H46         5.4190    1.6070    3.2490 hc        1 MOL      0.027784
    106 H47         8.8540    2.8740    2.2150 hc        1 MOL      0.027784
    107 H48         8.9910    4.0420    3.4700 hc        1 MOL      0.027784
    108 H49         8.9450    2.3210    3.8900 hc        1 MOL      0.027784
    109 N10         4.1030    3.6510    1.4900 n         1 MOL     -0.486789
    110 C35         2.6670    3.5860    1.8540 c3        1 MOL      0.259467
    111 C36         1.6290    3.6770    0.7170 c         1 MOL      0.625848
    112 O17         2.0390    3.5670   -0.3770 o         1 MOL     -0.535802
    113 C37         2.5620    2.2080    2.5190 c3        1 MOL     -0.351948
    114 C38         1.2260    1.7860    3.0300 c         1 MOL      0.648241
    115 N11         0.8360    0.5690    2.8190 n         1 MOL     -0.728709
    116 O18         0.4430    2.6010    3.3730 o         1 MOL     -0.553447
    117 H50         4.3900    2.9520    0.8130 hn        1 MOL      0.252709
    118 H51         2.4170    4.3940    2.5480 h1        1 MOL      0.052176
    119 H52         3.1590    2.2930    3.4140 hc        1 MOL      0.105076
    120 H53         2.8770    1.4200    1.8330 hc        1 MOL      0.105076
    121 H54         1.4950   -0.0490    2.3580 hn        1 MOL      0.345364
    122 H55        -0.1150    0.3180    3.0670 hn        1 MOL      0.345364
    123 N12         0.2950    3.7220    0.9360 n         1 MOL     -0.729281
    124 C39        -0.6320    3.3070   -0.1400 c3        1 MOL      0.378173
    125 C40        -2.0070    3.9980    0.2290 c         1 MOL      0.506190
    126 O19        -2.5960    3.7230    1.2590 o         1 MOL     -0.549389
    127 C41        -0.8240    1.8340   -0.0890 c3        1 MOL     -0.231425
    128 C42        -1.9650    1.2680   -0.9020 ca        1 MOL      0.087549
    129 C43        -3.0570    0.6930   -0.1850 ca        1 MOL     -0.225817
    130 C44        -1.8650    1.3400   -2.3070 ca        1 MOL     -0.225817
    131 C45        -3.9490   -0.0290   -1.0380 ca        1 MOL     -0.143327
    132 C46        -2.8670    0.7590   -3.0810 ca        1 MOL     -0.143327
    133 C47        -3.9570    0.0790   -2.4590 ca        1 MOL      0.268298
    134 O20        -4.8110   -0.6070   -3.2270 oh        1 MOL     -0.588482
    135 H56         0.0340    3.3210    1.8290 hn        1 MOL      0.304348
    136 H57        -0.3430    3.6200   -1.1350 h1        1 MOL      0.012124
    137 H58        -1.0590    1.6160    0.9530 hc        1 MOL      0.106724
    138 H59         0.0950    1.3150   -0.3750 hc        1 MOL      0.106724
    139 H60        -3.1070    0.6140    0.8940 ha        1 MOL      0.145550
    140 H61        -1.0150    1.7940   -2.7930 ha        1 MOL      0.145550
    141 H62        -4.7010   -0.5870   -0.4990 ha        1 MOL      0.106144
    142 H63        -2.8300    0.9140   -4.1430 ha        1 MOL      0.106144
    143 H64        -5.3170   -1.2160   -2.6910 ho        1 MOL      0.479576
    144 N13        -2.5560    4.7210   -0.7670 n         1 MOL     -0.604529
    145 C48        -3.7570    5.5330   -0.5500 c3        1 MOL      0.434836
    146 C49        -4.9110    5.0460   -1.4990 c         1 MOL      0.344237
    147 O21        -4.8600    5.3100   -2.6730 o         1 MOL     -0.555468
    148 C50        -3.5620    7.0000   -0.7750 c3        1 MOL      0.113673
    149 C51        -2.4260    7.5970    0.1000 c3        1 MOL     -0.218552
    150 C52        -2.3610    9.1100   -0.2020 c         1 MOL      0.664511
    151 O22        -3.2550    9.8600    0.2770 o         1 MOL     -0.650348
    152 O23        -1.5050    9.5750   -0.9970 o         1 MOL     -0.650348
    153 H65        -2.1110    4.6180   -1.6710 hn        1 MOL      0.297739
    154 H66        -4.1920    5.4350    0.4500 h1        1 MOL     -0.001252
    155 H67        -4.4930    7.4620   -0.4640 hc        1 MOL     -0.008157
    156 H68        -3.3940    7.2680   -1.8230 hc        1 MOL     -0.008157
    157 H69        -1.4780    7.1720   -0.2310 hc        1 MOL      0.025068
    158 H70        -2.5650    7.4570    1.1740 hc        1 MOL      0.025068
    159 N14        -6.0300    4.3630   -1.1530 n         1 MOL     -0.342402
    160 C53        -6.3910    3.8860    0.1900 c3        1 MOL     -0.249655
    161 C54        -6.7150    5.0590    1.2460 c         1 MOL      0.482351
    162 O24        -7.2820    6.1200    0.8970 o         1 MOL     -0.517773
    163 C55        -7.5930    2.9140    0.0530 c3        1 MOL      0.352545
    164 C56        -7.0750    1.5330   -0.3330 c3        1 MOL     -0.645865
    165 C57        -8.1490    0.5200   -0.6850 c         1 MOL      0.905775
    166 O25        -9.1460    0.9570   -1.3600 o         1 MOL     -0.729057
    167 O26        -8.2530   -0.6470   -0.2640 o         1 MOL     -0.729057
    168 H71        -6.6230    4.2060   -1.9560 hn        1 MOL      0.317356
    169 H72        -5.5390    3.2850    0.5130 h1        1 MOL      0.117562
    170 H73        -8.3510    3.3440   -0.6120 hc        1 MOL     -0.053475
    171 H74        -7.9260    2.9340    1.0910 hc        1 MOL     -0.053475
    172 H75        -6.4390    1.2840    0.5110 hc        1 MOL      0.155826
    173 H76        -6.4390    1.6320   -1.2140 hc        1 MOL      0.155826
    174 N15        -6.1610    4.8440    2.4000 n         1 MOL     -0.250540
    175 C58        -6.2480    5.8390    3.5340 c3        1 MOL     -0.368043
    176 H77        -7.2680    6.2160    3.6080 h1        1 MOL      0.142679
    177 H78        -5.9730    5.3510    4.4680 h1        1 MOL      0.142679
    178 H79        -5.5670    6.6690    3.3430 h1        1 MOL      0.142679
    179 H80        -5.5780    4.0510    2.6190 hn        1 MOL      0.275639
    180 Ca1        -8.3870   -3.1870   -1.1580 Ca        1 MOL      1.703653
    181 O27        -8.2760   -4.3250   -3.7510 oh        1 MOL     -0.816302
    182 H81        -7.9310   -5.1990   -3.9340 ho        1 MOL      0.380104
    183 H82        -8.8730   -4.1480   -4.4750 ho        1 MOL      0.380104
    184 O28        -8.5570   -1.1480   -3.1230 oh        1 MOL     -0.816302
    185 H83        -8.9610   -0.3660   -2.7400 ho        1 MOL      0.380104
    186 H84        -9.0350   -1.2860   -3.9450 ho        1 MOL      0.380104
    187 O29       -10.5620   -2.6030    0.3630 oh        1 MOL     -0.816302
    188 H85       -10.6390   -2.6260    1.3210 ho        1 MOL      0.380104
    189 H86       -11.4050   -2.9160    0.0410 ho        1 MOL      0.380104
    190 O30        -9.3370   -5.7940   -0.7740 oh        1 MOL     -0.816302
    191 H87        -9.9400   -6.4510   -1.0950 ho        1 MOL      0.380104
    192 H88        -8.5320   -6.2790   -0.5810 ho        1 MOL      0.380104
    193 O31       -10.9170   -2.8920   -2.7020 oh        1 MOL     -0.816302
    194 H89       -11.1110   -3.6540   -3.2430 ho        1 MOL      0.380104
    195 H90       -11.3550   -2.1660   -3.1350 ho        1 MOL      0.380104
@<TRIPOS>BOND
     1    1    2 1   
     2    1    4 1   
     3    1    5 1   
     4    1    6 1   
     5    2    3 2   
     6    2    7 1   
     7    7    8 1   
     8    7   15 1   
     9    8    9 1   
    10    8   11 1   
    11    8   16 1   
    12    9   10 2   
    13    9   19 1   
    14   11   12 1   
    15   11   17 1   
    16   11   18 1   
    17   12   13 1   
    18   12   14 1   
    19   19   20 1   
    20   19   27 1   
    21   20   21 1   
    22   20   23 1   
    23   20   28 1   
    24   21   22 2   
    25   21   38 1   
    26   23   24 1   
    27   23   25 1   
    28   23   29 1   
    29   24   26 1   
    30   24   30 1   
    31   24   31 1   
    32   25   32 1   
    33   25   33 1   
    34   25   34 1   
    35   26   35 1   
    36   26   36 1   
    37   26   37 1   
    38   38   39 1   
    39   38   46 1   
    40   39   40 1   
    41   39   42 1   
    42   39   47 1   
    43   40   41 2   
    44   40   50 1   
    45   42   43 1   
    46   42   48 1   
    47   42   49 1   
    48   43   44 1   
    49   43   45 1   
    50   50   51 1   
    51   50   54 1   
    52   51   52 1   
    53   51   55 1   
    54   51   56 1   
    55   52   53 2   
    56   52   57 1   
    57   57   58 1   
    58   57   65 1   
    59   58   59 1   
    60   58   61 1   
    61   58   66 1   
    62   59   60 2   
    63   59   69 1   
    64   61   62 1   
    65   61   67 1   
    66   61   68 1   
    67   62   63 1   
    68   62   64 1   
    69   69   70 1   
    70   69   73 1   
    71   70   71 1   
    72   70   74 1   
    73   70   75 1   
    74   71   72 2   
    75   71   76 1   
    76   76   77 1   
    77   76   85 1   
    78   77   78 1   
    79   77   80 1   
    80   77   86 1   
    81   78   79 2   
    82   78   93 1   
    83   80   81 1   
    84   80   87 1   
    85   80   88 1   
    86   81   82 1   
    87   81   89 1   
    88   81   90 1   
    89   82   83 1   
    90   82   84 2   
    91   83   91 1   
    92   83   92 1   
    93   93   94 1   
    94   93  100 1   
    95   94   95 1   
    96   94   97 1   
    97   94  101 1   
    98   95   96 2   
    99   95  109 1   
   100   97   98 1   
   101   97   99 1   
   102   97  102 1   
   103   98  103 1   
   104   98  104 1   
   105   98  105 1   
   106   99  106 1   
   107   99  107 1   
   108   99  108 1   
   109  109  110 1   
   110  109  117 1   
   111  110  111 1   
   112  110  113 1   
   113  110  118 1   
   114  111  112 2   
   115  111  123 1   
   116  113  114 1   
   117  113  119 1   
   118  113  120 1   
   119  114  115 1   
   120  114  116 2   
   121  115  121 1   
   122  115  122 1   
   123  123  124 1   
   124  123  135 1   
   125  124  125 1   
   126  124  127 1   
   127  124  136 1   
   128  125  126 2   
   129  125  144 1   
   130  127  128 1   
   131  127  137 1   
   132  127  138 1   
   133  128  129 ar  
   134  128  130 ar  
   135  129  131 ar  
   136  129  139 1   
   137  130  132 ar  
   138  130  140 1   
   139  131  133 ar  
   140  131  141 1   
   141  132  133 ar  
   142  132  142 1   
   143  133  134 1   
   144  134  143 1   
   145  144  145 1   
   146  144  153 1   
   147  145  146 1   
   148  145  148 1   
   149  145  154 1   
   150  146  147 2   
   151  146  159 1   
   152  148  149 1   
   153  148  155 1   
   154  148  156 1   
   155  149  150 1   
   156  149  157 1   
   157  149  158 1   
   158  150  151 1   
   159  150  152 1   
   160  159  160 1   
   161  159  168 1   
   162  160  161 1   
   163  160  163 1   
   164  160  169 1   
   165  161  162 2   
   166  161  174 1   
   167  163  164 1   
   168  163  170 1   
   169  163  171 1   
   170  164  165 1   
   171  164  172 1   
   172  164  173 1   
   173  165  166 1   
   174  165  167 1   
   175  174  175 1   
   176  174  179 1   
   177  175  176 1   
   178  175  177 1   
   179  175  178 1   
   180  181  182 1   
   181  181  183 1   
   182  184  185 1   
   183  184  186 1   
   184  187  188 1   
   185  187  189 1   
   186  190  191 1   
   187  190  192 1   
   188  193  194 1   
   189  193  195 1   
@<TRIPOS>SUBSTRUCTURE
     1 MOL         1 TEMP              0 ****  ****    0 ROOT
