@<TRIPOS>MOLECULE
MOL
  195   189     1     0     0
SMALL
resp


@<TRIPOS>ATOM
      1 C1          3.8330   -7.8530   -1.1680 c3        1 MOL     -0.350514
      2 C2          3.5450   -6.3790   -0.8510 c         1 MOL      0.719776
      3 O1          3.0450   -6.0230    0.2190 o         1 MOL     -0.578013
      4 H1          4.1040   -8.3750   -0.2510 hc        1 MOL      0.094826
      5 H2          2.9440   -8.3130   -1.5990 hc        1 MOL      0.094826
      6 H3          4.6570   -7.9180   -1.8790 hc        1 MOL      0.094826
      7 N1          3.8410   -5.4150   -1.7570 n         1 MOL     -0.632230
      8 C3          3.9160   -3.9930   -1.5410 c3        1 MOL      0.308785
      9 C4          2.5470   -3.3110   -1.4070 c         1 MOL      0.095042
     10 O2          2.4570   -2.0520   -1.5790 o         1 MOL     -0.510427
     11 C5          4.8350   -3.2550   -2.6520 c3        1 MOL     -0.417857
     12 C6          4.4010   -3.5620   -4.1220 c         1 MOL      0.825384
     13 O3          4.8450   -4.5680   -4.6540 o         1 MOL     -0.739608
     14 O4          3.5420   -2.8630   -4.7230 o         1 MOL     -0.739608
     15 H4          4.1540   -5.7870   -2.6430 hn        1 MOL      0.322368
     16 H5          4.3090   -3.8890   -0.5240 h1        1 MOL      0.058259
     17 H6          5.8860   -3.5050   -2.5360 hc        1 MOL      0.107232
     18 H7          4.6980   -2.1760   -2.5680 hc        1 MOL      0.107232
     19 N2          1.5210   -4.0780   -1.2540 n         1 MOL     -0.032652
     20 C7          0.0670   -3.7330   -1.4980 c3        1 MOL      0.207920
     21 C8         -0.7490   -3.8110   -0.2090 c         1 MOL      0.398188
     22 O5         -0.6950   -4.8930    0.3850 o         1 MOL     -0.518491
     23 C9         -0.4430   -4.5870   -2.6820 c3        1 MOL     -0.665527
     24 C10         0.3800   -4.3080   -3.9280 c3        1 MOL      0.276429
     25 C11        -0.2960   -4.6850   -5.2870 c3        1 MOL     -0.231423
     26 C12         0.8020   -4.9920   -6.2840 c3        1 MOL      0.075401
     27 N3          1.7200   -3.8760   -6.5720 n4        1 MOL     -0.223768
     28 H8          1.7060   -5.0200   -0.9300 hn        1 MOL      0.155479
     29 H9          0.0510   -2.6820   -1.7750 h1        1 MOL      0.058349
     30 H10        -1.4200   -4.1990   -2.9860 hc        1 MOL      0.191548
     31 H11        -0.6560   -5.6230   -2.4040 hc        1 MOL      0.191548
     32 H12         1.2550   -4.9570   -3.9570 hc        1 MOL      0.047379
     33 H13         0.5040   -3.2300   -4.0410 hc        1 MOL      0.047379
     34 H14        -0.8780   -3.8290   -5.6170 hc        1 MOL      0.080912
     35 H15        -0.8910   -5.5960   -5.1870 hc        1 MOL      0.080912
     36 H16         0.3260   -5.1970   -7.2530 hx        1 MOL      0.039696
     37 H17         1.4620   -5.7950   -5.9590 hx        1 MOL      0.039696
     38 H18         2.2680   -4.1730   -7.3700 hn        1 MOL      0.270355
     39 H19         1.2580   -3.0660   -6.9600 hn        1 MOL      0.270355
     40 H20         2.3330   -3.5870   -5.8310 hn        1 MOL      0.270355
     41 N4         -1.4970   -2.7940    0.3330 n         1 MOL     -0.124670
     42 C13        -1.8220   -1.4980   -0.2340 c3        1 MOL     -0.204757
     43 C14        -2.3290   -1.5170   -1.7060 c         1 MOL      0.397558
     44 O6         -1.6120   -1.2310   -2.6610 o         1 MOL     -0.488623
     45 C15        -0.6620   -0.4880    0.0720 c3        1 MOL     -0.226951
     46 C16        -0.6740   -0.0030    1.5250 c         1 MOL      0.689430
     47 O7         -1.4640   -0.4870    2.3500 o         1 MOL     -0.752468
     48 O8          0.1870    0.8780    1.7860 o         1 MOL     -0.752468
     49 H21        -1.7370   -2.9840    1.2970 hn        1 MOL      0.109233
     50 H22        -2.6790   -1.1990    0.3770 h1        1 MOL      0.080507
     51 H23        -0.8560    0.3510   -0.6020 hc        1 MOL      0.128654
     52 H24         0.2940   -0.9560   -0.1310 hc        1 MOL      0.128654
     53 N5         -3.6820   -1.7590   -1.8630 n         1 MOL     -0.430709
     54 C17        -4.7250   -1.7000   -0.8220 c3        1 MOL     -0.046841
     55 C18        -6.0930   -1.8820   -1.5140 c         1 MOL      0.597754
     56 O9         -6.2800   -2.0140   -2.7150 o         1 MOL     -0.551880
     57 H25        -3.9450   -1.6760   -2.8320 hn        1 MOL      0.278915
     58 H26        -4.7790   -0.6990   -0.3900 h1        1 MOL      0.104169
     59 H27        -4.5150   -2.4660   -0.0830 h1        1 MOL      0.104169
     60 N6         -7.0860   -1.8980   -0.6970 n         1 MOL     -0.479475
     61 C19        -7.2370   -1.4830    0.7050 c3        1 MOL     -0.024934
     62 C20        -7.6900   -0.0190    0.8430 c         1 MOL      0.464940
     63 O10        -8.2420    0.5360   -0.1240 o         1 MOL     -0.416502
     64 C21        -8.3820   -2.3730    1.2300 c3        1 MOL      0.006281
     65 C22        -9.6930   -2.2540    0.5720 c         1 MOL      0.720726
     66 O11       -10.5950   -1.7530    1.2550 o         1 MOL     -0.667216
     67 O12        -9.8340   -2.7030   -0.5640 o         1 MOL     -0.667216
     68 H28        -7.9080   -2.2930   -1.1260 hn        1 MOL      0.306483
     69 H29        -6.3840   -1.7080    1.3580 h1        1 MOL      0.013613
     70 H30        -8.4590   -2.1640    2.2990 hc        1 MOL     -0.031651
     71 H31        -8.1430   -3.4360    1.1520 hc        1 MOL     -0.031651
     72 N7         -7.4540    0.5970    2.0020 n         1 MOL     -0.386373
     73 C23        -7.8210    1.9960    2.0580 c3        1 MOL     -0.268604
     74 C24        -6.9150    2.9110    1.3080 c         1 MOL      0.554252
     75 O13        -7.4590    3.9220    0.8750 o         1 MOL     -0.539822
     76 H32        -7.2030    0.0950    2.8370 hn        1 MOL      0.308335
     77 H33        -7.8760    2.3290    3.0910 h1        1 MOL      0.151373
     78 H34        -8.7580    2.1810    1.5250 h1        1 MOL      0.151373
     79 N8         -5.6120    2.5650    1.1440 n         1 MOL     -0.335659
     80 C25        -4.5160    3.3510    0.4420 c3        1 MOL      0.040978
     81 C26        -3.7090    2.4860   -0.4840 c         1 MOL      0.434776
     82 O14        -3.4770    1.3120   -0.2430 o         1 MOL     -0.450900
     83 C27        -3.5800    4.0420    1.4760 c3        1 MOL      0.353075
     84 C28        -4.4060    5.0920    2.1820 c3        1 MOL     -0.357819
     85 O15        -2.5010    4.6880    0.9040 oh        1 MOL     -0.547098
     86 H35        -5.2520    1.7520    1.6300 hn        1 MOL      0.158314
     87 H36        -4.9410    4.1300   -0.1810 h1        1 MOL      0.057219
     88 H37        -3.1570    3.3340    2.1950 h1        1 MOL      0.004106
     89 H38        -1.8430    4.0140    1.0900 ho        1 MOL      0.366239
     90 H39        -3.7230    5.6450    2.8250 hc        1 MOL      0.091342
     91 H40        -4.8520    5.8740    1.5790 hc        1 MOL      0.091342
     92 H41        -5.1690    4.5330    2.7230 hc        1 MOL      0.091342
     93 N9         -3.1090    3.0820   -1.5250 n         1 MOL     -0.246177
     94 C29        -2.1850    2.4470   -2.5370 c3        1 MOL     -0.411346
     95 C30        -0.8170    3.0820   -2.7460 c         1 MOL      0.673114
     96 O16        -0.0280    2.4720   -3.4530 o         1 MOL     -0.495454
     97 C31        -2.9590    2.3110   -3.8830 c3        1 MOL      0.183162
     98 C32        -2.8850    3.6160   -4.6860 c3        1 MOL     -0.141878
     99 C33        -4.3510    1.6670   -3.7770 c3        1 MOL     -0.059346
    100 C34        -3.4340    3.3530   -6.1270 c3        1 MOL     -0.159058
    101 H42        -3.2420    4.0830   -1.5440 hn        1 MOL      0.231066
    102 H43        -1.9350    1.4560   -2.1720 h1        1 MOL      0.228684
    103 H44        -2.2930    1.5870   -4.3520 hc        1 MOL      0.037842
    104 H45        -1.8370    3.9050   -4.7760 hc        1 MOL      0.059755
    105 H46        -3.5980    4.2890   -4.2040 hc        1 MOL      0.059755
    106 H47        -5.0680    2.2940   -3.2340 hc        1 MOL      0.030698
    107 H48        -4.8280    1.4350   -4.7270 hc        1 MOL      0.030698
    108 H49        -4.2700    0.6720   -3.3580 hc        1 MOL      0.030698
    109 H50        -3.1050    2.3780   -6.4910 hc        1 MOL      0.043318
    110 H51        -4.5120    3.3670   -6.3180 hc        1 MOL      0.043318
    111 H52        -3.1690    4.1620   -6.8030 hc        1 MOL      0.043318
    112 N10        -0.5360    4.2640   -2.1190 n         1 MOL     -0.505712
    113 C35         0.8140    4.8910   -2.2380 c3        1 MOL     -0.324439
    114 C36         1.9840    4.2000   -1.5310 c         1 MOL      0.583988
    115 O17         1.6920    3.5780   -0.5100 o         1 MOL     -0.398380
    116 C37         0.8460    6.2920   -1.5800 c3        1 MOL      0.403414
    117 C38         0.4340    6.4210   -0.1340 c3        1 MOL     -0.181907
    118 O18        -0.0710    7.1580   -2.2750 oh        1 MOL     -0.614412
    119 H53        -1.2220    4.6820   -1.5250 hn        1 MOL      0.318267
    120 H54         0.9880    4.9480   -3.3110 h1        1 MOL      0.134684
    121 H55         1.8520    6.6840   -1.7230 h1        1 MOL     -0.005518
    122 H56        -0.2890    6.7290   -3.1070 ho        1 MOL      0.375763
    123 H57         0.7070    7.4120    0.2280 hc        1 MOL      0.058022
    124 H58        -0.6360    6.2640   -0.0230 hc        1 MOL      0.058022
    125 H59         0.9380    5.8250    0.6250 hc        1 MOL      0.058022
    126 N11         3.2070    4.2780   -1.9690 n         1 MOL     -0.382656
    127 C39         4.2330    3.2770   -1.5310 c3        1 MOL     -0.410942
    128 C40         4.6930    3.3520   -0.0670 c         1 MOL      0.524839
    129 O19         4.7080    4.4600    0.5280 o         1 MOL     -0.502075
    130 C41         5.3280    3.3980   -2.5500 c3        1 MOL      0.373500
    131 C42         6.1860    4.6730   -2.5410 c3        1 MOL     -0.141946
    132 O20         4.8820    3.2570   -3.8670 oh        1 MOL     -0.626495
    133 H60         3.4220    4.8580   -2.7590 hn        1 MOL      0.297424
    134 H61         3.8110    2.3040   -1.7900 h1        1 MOL      0.194475
    135 H62         5.9460    2.5470   -2.2820 h1        1 MOL      0.003182
    136 H63         4.1980    2.5890   -3.8540 ho        1 MOL      0.422771
    137 H64         6.5030    5.0010   -3.5360 hc        1 MOL      0.054013
    138 H65         5.6870    5.5640   -2.1550 hc        1 MOL      0.054013
    139 H66         7.1260    4.5380   -2.0050 hc        1 MOL      0.054013
    140 N12         4.9910    2.1860    0.4690 n         1 MOL     -0.429468
    141 C43         5.7830    1.9010    1.7300 c3        1 MOL      0.210037
    142 C44         5.0790    0.9260    2.6640 c         1 MOL      0.593495
    143 O21         5.0610    1.1630    3.8600 o         1 MOL     -0.616826
    144 C45         7.1100    1.3500    1.2640 c3        1 MOL     -0.203859
    145 C46         7.9030    2.0170    0.1400 c3        1 MOL      0.028877
    146 C47         8.2200    3.5310    0.3730 c3        1 MOL     -0.011113
    147 C48         8.8680    3.6810    1.6800 c3        1 MOL      0.162302
    148 N13         9.2010    5.1080    1.9310 n4        1 MOL     -0.358819
    149 H67         4.8950    1.3950   -0.1530 hn        1 MOL      0.306032
    150 H68         5.9330    2.7720    2.3720 h1        1 MOL      0.042832
    151 H69         6.9540    0.3370    0.8960 hc        1 MOL      0.055686
    152 H70         7.7940    1.2340    2.0950 hc        1 MOL      0.055686
    153 H71         7.2150    1.9890   -0.7080 hc        1 MOL      0.031072
    154 H72         8.7820    1.4600   -0.1660 hc        1 MOL      0.031072
    155 H73         7.2770    4.0720    0.3620 hc        1 MOL     -0.010381
    156 H74         8.8780    3.8760   -0.4270 hc        1 MOL     -0.010381
    157 H75         9.8430    3.2100    1.6270 hx        1 MOL      0.034679
    158 H76         8.1820    3.3160    2.4430 hx        1 MOL      0.034679
    159 H77        10.0180    5.3970    1.4130 hn        1 MOL      0.295923
    160 H78         8.3960    5.6370    1.6330 hn        1 MOL      0.295923
    161 H79         9.3460    5.2410    2.9220 hn        1 MOL      0.295923
    162 N14         4.4380   -0.0830    2.1330 n         1 MOL     -0.456268
    163 C49         3.6840   -1.1170    2.9000 c3        1 MOL      0.060813
    164 C50         4.7200   -2.1890    3.3690 c         1 MOL      0.364472
    165 O22         5.3140   -2.8740    2.5060 o         1 MOL     -0.533358
    166 C51         2.6410   -1.7780    2.0400 c3        1 MOL      0.205943
    167 C52         2.0540   -2.9820    2.8300 c3        1 MOL     -0.541697
    168 C53         1.6470   -2.7940    4.3380 c         1 MOL      0.752223
    169 O23         2.3880   -3.1200    5.2350 o         1 MOL     -0.723416
    170 O24         0.5140   -2.3860    4.5790 o         1 MOL     -0.723416
    171 H80         4.4360   -0.2630    1.1470 hn        1 MOL      0.233891
    172 H81         3.2660   -0.6730    3.8010 h1        1 MOL      0.112742
    173 H82         3.2310   -2.0980    1.1860 hc        1 MOL      0.026693
    174 H83         1.8480   -1.1020    1.7050 hc        1 MOL      0.026693
    175 H84         2.8360   -3.7400    2.8040 hc        1 MOL      0.169914
    176 H85         1.2570   -3.5350    2.3280 hc        1 MOL      0.169914
    177 N15         5.2730   -2.1530    4.5810 n         1 MOL     -0.187844
    178 C54         6.4430   -2.9740    4.9790 c3        1 MOL     -0.221110
    179 H86         6.7370   -2.7160    5.9960 h1        1 MOL      0.102564
    180 H87         6.1780   -4.0300    4.9330 h1        1 MOL      0.102564
    181 H88         7.2730   -2.7780    4.3000 h1        1 MOL      0.102564
    182 H89         4.7140   -1.7220    5.2990 hn        1 MOL      0.267554
    183 Ca1        -1.7560   -1.1450    4.7320 Ca        1 MOL      1.786722
    184 O25         0.2190    0.5910    4.4150 oh        1 MOL     -0.905819
    185 H90        -0.0350    1.4790    4.6530 ho        1 MOL      0.443056
    186 H91         0.3880    0.6410    3.4710 ho        1 MOL      0.443056
    187 O26        -1.1330    0.2110    7.1930 oh        1 MOL     -0.905819
    188 H92        -1.6060    0.9090    7.6420 ho        1 MOL      0.443056
    189 H93        -0.9110   -0.4090    7.8960 ho        1 MOL      0.443056
    190 O27        -3.2970    1.0420    4.9840 oh        1 MOL     -0.905819
    191 H94        -4.0240    1.0460    5.5980 ho        1 MOL      0.443056
    192 H95        -2.9480    1.9340    5.0110 ho        1 MOL      0.443056
    193 O28        -2.0240   -3.1430    6.5530 oh        1 MOL     -0.905819
    194 H96        -2.6260   -3.7350    6.9840 ho        1 MOL      0.443056
    195 H97        -1.1510   -3.4850    6.7850 ho        1 MOL      0.443056
@<TRIPOS>BOND
     1    1    2 1   
     2    1    4 1   
     3    1    5 1   
     4    1    6 1   
     5    2    3 2   
     6    2    7 1   
     7    7    8 1   
     8    7   15 1   
     9    8    9 1   
    10    8   11 1   
    11    8   16 1   
    12    9   10 2   
    13    9   19 1   
    14   11   12 1   
    15   11   17 1   
    16   11   18 1   
    17   12   13 1   
    18   12   14 1   
    19   19   20 1   
    20   19   28 1   
    21   20   21 1   
    22   20   23 1   
    23   20   29 1   
    24   21   22 2   
    25   21   41 1   
    26   23   24 1   
    27   23   30 1   
    28   23   31 1   
    29   24   25 1   
    30   24   32 1   
    31   24   33 1   
    32   25   26 1   
    33   25   34 1   
    34   25   35 1   
    35   26   27 1   
    36   26   36 1   
    37   26   37 1   
    38   27   38 1   
    39   27   39 1   
    40   27   40 1   
    41   41   42 1   
    42   41   49 1   
    43   42   43 1   
    44   42   45 1   
    45   42   50 1   
    46   43   44 2   
    47   43   53 1   
    48   45   46 1   
    49   45   51 1   
    50   45   52 1   
    51   46   47 1   
    52   46   48 1   
    53   53   54 1   
    54   53   57 1   
    55   54   55 1   
    56   54   58 1   
    57   54   59 1   
    58   55   56 2   
    59   55   60 1   
    60   60   61 1   
    61   60   68 1   
    62   61   62 1   
    63   61   64 1   
    64   61   69 1   
    65   62   63 2   
    66   62   72 1   
    67   64   65 1   
    68   64   70 1   
    69   64   71 1   
    70   65   66 1   
    71   65   67 1   
    72   72   73 1   
    73   72   76 1   
    74   73   74 1   
    75   73   77 1   
    76   73   78 1   
    77   74   75 2   
    78   74   79 1   
    79   79   80 1   
    80   79   86 1   
    81   80   81 1   
    82   80   83 1   
    83   80   87 1   
    84   81   82 2   
    85   81   93 1   
    86   83   84 1   
    87   83   85 1   
    88   83   88 1   
    89   84   90 1   
    90   84   91 1   
    91   84   92 1   
    92   85   89 1   
    93   93   94 1   
    94   93  101 1   
    95   94   95 1   
    96   94   97 1   
    97   94  102 1   
    98   95   96 2   
    99   95  112 1   
   100   97   98 1   
   101   97   99 1   
   102   97  103 1   
   103   98  100 1   
   104   98  104 1   
   105   98  105 1   
   106   99  106 1   
   107   99  107 1   
   108   99  108 1   
   109  100  109 1   
   110  100  110 1   
   111  100  111 1   
   112  112  113 1   
   113  112  119 1   
   114  113  114 1   
   115  113  116 1   
   116  113  120 1   
   117  114  115 2   
   118  114  126 1   
   119  116  117 1   
   120  116  118 1   
   121  116  121 1   
   122  117  123 1   
   123  117  124 1   
   124  117  125 1   
   125  118  122 1   
   126  126  127 1   
   127  126  133 1   
   128  127  128 1   
   129  127  130 1   
   130  127  134 1   
   131  128  129 2   
   132  128  140 1   
   133  130  131 1   
   134  130  132 1   
   135  130  135 1   
   136  131  137 1   
   137  131  138 1   
   138  131  139 1   
   139  132  136 1   
   140  140  141 1   
   141  140  149 1   
   142  141  142 1   
   143  141  144 1   
   144  141  150 1   
   145  142  143 2   
   146  142  162 1   
   147  144  145 1   
   148  144  151 1   
   149  144  152 1   
   150  145  146 1   
   151  145  153 1   
   152  145  154 1   
   153  146  147 1   
   154  146  155 1   
   155  146  156 1   
   156  147  148 1   
   157  147  157 1   
   158  147  158 1   
   159  148  159 1   
   160  148  160 1   
   161  148  161 1   
   162  162  163 1   
   163  162  171 1   
   164  163  164 1   
   165  163  166 1   
   166  163  172 1   
   167  164  165 2   
   168  164  177 1   
   169  166  167 1   
   170  166  173 1   
   171  166  174 1   
   172  167  168 1   
   173  167  175 1   
   174  167  176 1   
   175  168  169 1   
   176  168  170 1   
   177  177  178 1   
   178  177  182 1   
   179  178  179 1   
   180  178  180 1   
   181  178  181 1   
   182  184  185 1   
   183  184  186 1   
   184  187  188 1   
   185  187  189 1   
   186  190  191 1   
   187  190  192 1   
   188  193  194 1   
   189  193  195 1   
@<TRIPOS>SUBSTRUCTURE
     1 MOL         1 TEMP              0 ****  ****    0 ROOT
