@<TRIPOS>MOLECULE
MOL
  192   187     1     0     0
SMALL
resp


@<TRIPOS>ATOM
      1 C1        -10.3760   -1.2000   -1.5150 c3        1 MOL     -0.501973
      2 C2         -8.9760   -0.9010   -1.0820 c         1 MOL      0.820279
      3 O1         -8.0480   -1.1830   -1.8360 o         1 MOL     -0.625993
      4 H1        -10.8890   -0.2680   -1.7530 hc        1 MOL      0.125139
      5 H2        -10.3560   -1.8400   -2.3980 hc        1 MOL      0.125139
      6 H3        -10.9060   -1.7090   -0.7090 hc        1 MOL      0.125139
      7 N1         -8.7190   -0.4930    0.2000 n         1 MOL     -0.738620
      8 C3         -7.3920   -0.2600    0.7010 c3        1 MOL      0.229768
      9 C4         -6.8870   -1.6050    1.2450 c         1 MOL      0.446527
     10 O2         -6.8170   -1.8550    2.4610 o         1 MOL     -0.487400
     11 C5         -7.3410    0.8850    1.7460 c3        1 MOL     -0.208154
     12 C6         -7.6900    2.3270    1.3180 c         1 MOL      0.743854
     13 O3         -8.6360    2.5940    0.5420 o         1 MOL     -0.655803
     14 O4         -6.9740    3.2460    1.7570 o         1 MOL     -0.655803
     15 H4         -9.5060   -0.3990    0.8360 hn        1 MOL      0.378739
     16 H5         -6.7390    0.0400   -0.1180 h1        1 MOL      0.049463
     17 H6         -6.2980    0.8840    2.0650 hc        1 MOL      0.053305
     18 H7         -8.0210    0.6960    2.5750 hc        1 MOL      0.053305
     19 N2         -6.5590   -2.5500    0.3560 n         1 MOL     -0.400149
     20 C7         -5.9510   -3.8370    0.6200 c3        1 MOL      0.201359
     21 C8         -4.5460   -3.8070    1.2950 c         1 MOL      0.436585
     22 O5         -4.3750   -4.6240    2.2090 o         1 MOL     -0.526196
     23 C9         -5.9740   -4.6940   -0.6700 c3        1 MOL     -0.320067
     24 C10        -7.3630   -5.0550   -1.2250 c3        1 MOL      0.187429
     25 C11        -7.3990   -6.1460   -2.3800 c3        1 MOL     -0.031042
     26 C12        -8.8470   -6.4420   -2.6760 c3        1 MOL     -0.015511
     27 N3         -8.9630   -6.8940   -4.0930 n4        1 MOL     -0.163498
     28 H8         -6.6930   -2.2720   -0.6020 hn        1 MOL      0.245045
     29 H9         -6.6380   -4.3270    1.3130 h1        1 MOL      0.064350
     30 H10        -5.5840   -5.6950   -0.4650 hc        1 MOL      0.078669
     31 H11        -5.3590   -4.2270   -1.4440 hc        1 MOL      0.078669
     32 H12        -7.8430   -4.1440   -1.5710 hc        1 MOL     -0.031930
     33 H13        -7.9950   -5.3260   -0.3770 hc        1 MOL     -0.031930
     34 H14        -6.9590   -7.0460   -1.9680 hc        1 MOL      0.036227
     35 H15        -6.8280   -5.8540   -3.2630 hc        1 MOL      0.036227
     36 H16        -9.4130   -5.5170   -2.5930 hx        1 MOL      0.083977
     37 H17        -9.1720   -7.1420   -1.9070 hx        1 MOL      0.083977
     38 H18        -8.3460   -7.6890   -4.2160 hn        1 MOL      0.226966
     39 H19        -9.9010   -7.2010   -4.3270 hn        1 MOL      0.226966
     40 H20        -8.7470   -6.1610   -4.7500 hn        1 MOL      0.226966
     41 N4         -3.6270   -2.8750    0.9310 n         1 MOL     -0.353975
     42 C13        -3.7310   -1.8110   -0.0970 c3        1 MOL      0.030036
     43 C14        -3.8770   -0.3770    0.4910 c         1 MOL      0.369870
     44 O6         -4.0850   -0.1990    1.7010 o         1 MOL     -0.430234
     45 C15        -2.4410   -1.9880   -0.8920 c3        1 MOL     -0.287444
     46 C16        -1.1190   -2.0040   -0.1580 c         1 MOL      0.711776
     47 O7         -0.8270   -1.0920    0.6900 o         1 MOL     -0.673556
     48 O8         -0.4120   -2.9770   -0.3620 o         1 MOL     -0.673556
     49 H21        -2.7400   -2.9920    1.3910 hn        1 MOL      0.333043
     50 H22        -4.5330   -1.9140   -0.8300 h1        1 MOL      0.079175
     51 H23        -2.5260   -1.1660   -1.6050 hc        1 MOL      0.076545
     52 H24        -2.5710   -2.8540   -1.5410 hc        1 MOL      0.076545
     53 N5         -3.9030    0.5280   -0.4620 n         1 MOL     -0.411915
     54 C17        -4.0320    2.0160   -0.2530 c3        1 MOL      0.053503
     55 C18        -2.8850    2.7320    0.4620 c         1 MOL      0.631340
     56 O9         -1.8080    2.1520    0.5820 o         1 MOL     -0.687417
     57 H25        -3.6750    0.1740   -1.3850 hn        1 MOL      0.280681
     58 H26        -4.9230    2.1620    0.3620 h1        1 MOL      0.043999
     59 H27        -4.1250    2.5790   -1.1870 h1        1 MOL      0.043999
     60 N6         -3.1150    4.0020    0.8930 n         1 MOL     -0.436732
     61 C19        -2.2330    5.0010    1.4950 c3        1 MOL      0.319658
     62 C20        -2.6780    6.3730    1.0390 c         1 MOL      0.413343
     63 O10        -3.8530    6.6820    0.8450 o         1 MOL     -0.503599
     64 C21        -2.0470    4.8240    3.0020 c3        1 MOL     -0.304414
     65 C22        -1.2670    3.5540    3.2980 c         1 MOL      0.639165
     66 O11        -0.1320    3.3170    2.7090 o         1 MOL     -0.673885
     67 O12        -1.7150    2.7090    4.1010 o         1 MOL     -0.673885
     68 H28        -4.0600    4.2810    0.6710 hn        1 MOL      0.249183
     69 H29        -1.2650    4.8350    1.0170 h1        1 MOL      0.026528
     70 H30        -3.0280    4.7940    3.4920 hc        1 MOL      0.103402
     71 H31        -1.5360    5.7180    3.3470 hc        1 MOL      0.103402
     72 N7         -1.7700    7.3280    0.9210 n         1 MOL     -0.439057
     73 C23        -0.3260    7.2030    1.0020 c3        1 MOL      0.019285
     74 C24         0.3660    6.4480   -0.1110 c         1 MOL      0.485191
     75 O13        -0.1730    6.5450   -1.2220 o         1 MOL     -0.499946
     76 H32        -2.0660    8.2270    0.5650 hn        1 MOL      0.310283
     77 H33        -0.1160    6.7460    1.9650 h1        1 MOL      0.052704
     78 H34         0.1210    8.1800    1.1750 h1        1 MOL      0.052704
     79 N8          1.4750    5.8020    0.1260 n         1 MOL     -0.444947
     80 C25         2.3770    5.0170   -0.8980 c3        1 MOL     -0.054292
     81 C26         1.8340    3.5630   -0.9890 c         1 MOL      0.746254
     82 O14         1.2500    3.0840   -0.0200 o         1 MOL     -0.695389
     83 C27         3.8580    5.1170   -0.5740 c3        1 MOL      0.341194
     84 C28         4.1680    4.9400    0.8650 c3        1 MOL     -0.240081
     85 O15         4.2440    6.4410   -0.8320 oh        1 MOL     -0.629048
     86 H35         1.8230    5.7030    1.0770 hn        1 MOL      0.243448
     87 H36         2.2270    5.5390   -1.8440 h1        1 MOL      0.099976
     88 H37         4.4810    4.4630   -1.1870 h1        1 MOL      0.060616
     89 H38         3.9340    6.9220   -0.0650 ho        1 MOL      0.384034
     90 H39         4.0140    5.8460    1.4540 hc        1 MOL      0.065011
     91 H40         3.6960    4.0470    1.2780 hc        1 MOL      0.065011
     92 H41         5.2330    4.7120    0.9360 hc        1 MOL      0.065011
     93 N9          1.9860    3.0350   -2.2240 n         1 MOL     -0.751111
     94 C29         1.1050    2.0390   -2.8400 c3        1 MOL      0.097439
     95 C30         1.3710    0.6540   -2.1850 c         1 MOL      0.749946
     96 O16         1.5240    0.5090   -0.9770 o         1 MOL     -0.580910
     97 C31        -0.3690    2.5290   -2.8600 c3        1 MOL      0.021370
     98 C32        -0.7670    3.7270   -3.6950 c3        1 MOL     -0.020328
     99 C33        -1.2870    1.3660   -3.1100 c3        1 MOL     -1.052742
    100 C34        -2.1160    4.3810   -3.2210 c3        1 MOL     -0.038084
    101 H42         2.4370    3.6410   -2.8790 hn        1 MOL      0.343760
    102 H43         1.4600    1.9400   -3.8730 h1        1 MOL      0.052676
    103 H44        -0.5970    2.8040   -1.8320 hc        1 MOL      0.234311
    104 H45        -0.8150    3.4310   -4.7390 hc        1 MOL      0.012667
    105 H46         0.0290    4.4620   -3.6080 hc        1 MOL      0.012667
    106 H47        -2.2970    1.6870   -3.3670 hc        1 MOL      0.274307
    107 H48        -0.8410    0.9430   -4.0170 hc        1 MOL      0.274307
    108 H49        -1.2230    0.7600   -2.2090 hc        1 MOL      0.274307
    109 H50        -3.0340    3.8570   -3.4750 hc        1 MOL      0.024402
    110 H51        -2.0140    4.5510   -2.1530 hc        1 MOL      0.024402
    111 H52        -2.1930    5.3390   -3.7280 hc        1 MOL      0.024402
    112 N10         1.5380   -0.3640   -3.0900 n         1 MOL     -0.443845
    113 C35         2.0250   -1.7290   -2.6670 c3        1 MOL     -0.210597
    114 C36         3.5780   -1.7450   -2.8180 c         1 MOL      0.317376
    115 O17         4.2120   -2.8080   -2.7840 o         1 MOL     -0.536562
    116 C37         1.4580   -2.8840   -3.5260 c3        1 MOL      0.572494
    117 C38         1.4870   -2.7110   -5.0530 c3        1 MOL     -0.297442
    118 O18         0.1630   -3.0100   -3.1210 oh        1 MOL     -0.662721
    119 H53         1.4400   -0.1760   -4.0820 hn        1 MOL      0.240821
    120 H54         1.8450   -1.8990   -1.6100 h1        1 MOL      0.179201
    121 H55         1.9800   -3.8020   -3.2590 h1        1 MOL     -0.034965
    122 H56         0.1810   -2.8740   -2.1740 ho        1 MOL      0.369221
    123 H57         1.2480   -3.6380   -5.5830 hc        1 MOL      0.070188
    124 H58         0.7740   -1.9800   -5.4290 hc        1 MOL      0.070188
    125 H59         2.5190   -2.5390   -5.3710 hc        1 MOL      0.070188
    126 N11         4.3040   -0.6700   -2.9890 n         1 MOL     -0.039521
    127 C39         5.7850   -0.5150   -3.0950 c3        1 MOL      0.019427
    128 C40         6.5150   -0.7870   -1.8130 c         1 MOL      0.498582
    129 O19         7.0570    0.1910   -1.2810 o         1 MOL     -0.505111
    130 C41         6.0760    0.8000   -3.8390 c3        1 MOL      0.189830
    131 C42         5.7570    0.6220   -5.3250 c3        1 MOL     -0.196192
    132 O20         5.4620    1.9350   -3.2810 oh        1 MOL     -0.589887
    133 H60         3.7970    0.1990   -3.0410 hn        1 MOL      0.150613
    134 H61         6.0760   -1.3610   -3.7230 h1        1 MOL      0.019945
    135 H62         7.1530    0.9240   -3.9760 h1        1 MOL      0.036880
    136 H63         5.6080    2.6680   -3.8970 ho        1 MOL      0.405818
    137 H64         6.0920    1.5210   -5.8500 hc        1 MOL      0.049905
    138 H65         6.4050   -0.1030   -5.8150 hc        1 MOL      0.049905
    139 H66         4.7110    0.5190   -5.5950 hc        1 MOL      0.049905
    140 N12         6.4930   -2.0240   -1.2880 n         1 MOL     -0.429490
    141 C43         6.6690   -2.4770    0.1180 c3        1 MOL      0.152118
    142 C44         5.5860   -1.9830    1.0600 c         1 MOL      0.613381
    143 O21         5.2310   -0.7810    1.0920 o         1 MOL     -0.538240
    144 C45         8.0410   -2.1060    0.7470 c3        1 MOL     -0.398546
    145 C46         9.2240   -2.6380   -0.0830 c3        1 MOL      0.130376
    146 C47        10.5160   -2.0020    0.2850 c3        1 MOL      0.109419
    147 C48        11.5960   -2.7790   -0.4180 c3        1 MOL      0.018386
    148 N13        12.8540   -2.0100   -0.2170 n4        1 MOL     -0.179625
    149 H67         6.0250   -2.6930   -1.8770 hn        1 MOL      0.268107
    150 H68         6.5090   -3.5500    0.2180 h1        1 MOL      0.039212
    151 H69         8.1220   -2.5700    1.7330 hc        1 MOL      0.111808
    152 H70         8.1160   -1.0640    1.0720 hc        1 MOL      0.111808
    153 H71         8.9650   -2.4360   -1.1220 hc        1 MOL     -0.011735
    154 H72         9.2600   -3.7310   -0.0380 hc        1 MOL     -0.011735
    155 H73        10.6550   -2.1820    1.3460 hc        1 MOL      0.010625
    156 H74        10.4720   -0.9400    0.0360 hc        1 MOL      0.010625
    157 H75        11.2850   -2.8480   -1.4640 hx        1 MOL      0.054570
    158 H76        11.7280   -3.7670    0.0410 hx        1 MOL      0.054570
    159 H77        13.0110   -1.3490   -0.9650 hn        1 MOL      0.209688
    160 H78        12.7980   -1.6320    0.7120 hn        1 MOL      0.209688
    161 H79        13.6210   -2.6710   -0.2000 hn        1 MOL      0.209688
    162 N14         4.8770   -2.8730    1.7760 n         1 MOL     -0.662738
    163 C49         3.6900   -2.5220    2.5710 c3        1 MOL      0.428213
    164 C50         2.4960   -2.3320    1.7310 c         1 MOL      0.286599
    165 O22         1.9590   -1.2840    1.6900 o         1 MOL     -0.487334
    166 C51         3.5600   -3.4900    3.7430 c3        1 MOL     -0.187449
    167 C52         4.6640   -3.3610    4.7630 c3        1 MOL     -0.105968
    168 C53         4.4870   -4.3770    5.8790 c         1 MOL      0.673003
    169 O23         3.6300   -4.2110    6.8190 o         1 MOL     -0.639759
    170 O24         5.1740   -5.4010    5.8140 o         1 MOL     -0.639759
    171 H80         5.3090   -3.7810    1.8150 hn        1 MOL      0.340053
    172 H81         3.8860   -1.5640    3.0630 h1        1 MOL      0.028430
    173 H82         3.6350   -4.5320    3.4320 hc        1 MOL      0.072981
    174 H83         2.6190   -3.2900    4.2450 hc        1 MOL      0.072981
    175 H84         4.6760   -2.3470    5.1660 hc        1 MOL     -0.013871
    176 H85         5.6430   -3.5760    4.3250 hc        1 MOL     -0.013871
    177 N15         2.0660   -3.3240    0.9520 n         1 MOL     -0.288393
    178 C54         2.4750   -4.7040    0.8020 c3        1 MOL     -0.089087
    179 H86         3.5100   -4.8130    1.1280 h1        1 MOL      0.052310
    180 H87         1.8340   -5.3420    1.4090 h1        1 MOL      0.052310
    181 H88         2.3930   -4.9960   -0.2450 h1        1 MOL      0.052310
    182 H89         1.1660   -3.1110    0.5580 hn        1 MOL      0.332344
    183 Ca1         0.5270    1.0060    1.5090 Ca        1 MOL      1.774979
    184 O25        -1.7180    0.3600    3.1670 oh        1 MOL     -0.892692
    185 H90        -1.7100    1.1270    3.7380 ho        1 MOL      0.440187
    186 H91        -2.6000    0.3460    2.7930 ho        1 MOL      0.440187
    187 O26         3.0780    1.5830    2.0970 oh        1 MOL     -0.892692
    188 H92         3.5670    1.8320    1.3100 ho        1 MOL      0.440187
    189 H93         3.6620    1.8010    2.8180 ho        1 MOL      0.440187
    190 O27         0.9110    0.5070    4.1260 oh        1 MOL     -0.892692
    191 H94         1.3820   -0.1890    4.5870 ho        1 MOL      0.440187
    192 H95         0.8090    1.1960    4.7830 ho        1 MOL      0.440187
@<TRIPOS>BOND
     1    1    2 1   
     2    1    4 1   
     3    1    5 1   
     4    1    6 1   
     5    2    3 2   
     6    2    7 1   
     7    7    8 1   
     8    7   15 1   
     9    8    9 1   
    10    8   11 1   
    11    8   16 1   
    12    9   10 2   
    13    9   19 1   
    14   11   12 1   
    15   11   17 1   
    16   11   18 1   
    17   12   13 1   
    18   12   14 1   
    19   19   20 1   
    20   19   28 1   
    21   20   21 1   
    22   20   23 1   
    23   20   29 1   
    24   21   22 2   
    25   21   41 1   
    26   23   24 1   
    27   23   30 1   
    28   23   31 1   
    29   24   25 1   
    30   24   32 1   
    31   24   33 1   
    32   25   26 1   
    33   25   34 1   
    34   25   35 1   
    35   26   27 1   
    36   26   36 1   
    37   26   37 1   
    38   27   38 1   
    39   27   39 1   
    40   27   40 1   
    41   41   42 1   
    42   41   49 1   
    43   42   43 1   
    44   42   45 1   
    45   42   50 1   
    46   43   44 2   
    47   43   53 1   
    48   45   46 1   
    49   45   51 1   
    50   45   52 1   
    51   46   47 1   
    52   46   48 1   
    53   53   54 1   
    54   53   57 1   
    55   54   55 1   
    56   54   58 1   
    57   54   59 1   
    58   55   56 2   
    59   55   60 1   
    60   60   61 1   
    61   60   68 1   
    62   61   62 1   
    63   61   64 1   
    64   61   69 1   
    65   62   63 2   
    66   62   72 1   
    67   64   65 1   
    68   64   70 1   
    69   64   71 1   
    70   65   66 1   
    71   65   67 1   
    72   72   73 1   
    73   72   76 1   
    74   73   74 1   
    75   73   77 1   
    76   73   78 1   
    77   74   75 2   
    78   74   79 1   
    79   79   80 1   
    80   79   86 1   
    81   80   81 1   
    82   80   83 1   
    83   80   87 1   
    84   81   82 2   
    85   81   93 1   
    86   83   84 1   
    87   83   85 1   
    88   83   88 1   
    89   84   90 1   
    90   84   91 1   
    91   84   92 1   
    92   85   89 1   
    93   93   94 1   
    94   93  101 1   
    95   94   95 1   
    96   94   97 1   
    97   94  102 1   
    98   95   96 2   
    99   95  112 1   
   100   97   98 1   
   101   97   99 1   
   102   97  103 1   
   103   98  100 1   
   104   98  104 1   
   105   98  105 1   
   106   99  106 1   
   107   99  107 1   
   108   99  108 1   
   109  100  109 1   
   110  100  110 1   
   111  100  111 1   
   112  112  113 1   
   113  112  119 1   
   114  113  114 1   
   115  113  116 1   
   116  113  120 1   
   117  114  115 2   
   118  114  126 1   
   119  116  117 1   
   120  116  118 1   
   121  116  121 1   
   122  117  123 1   
   123  117  124 1   
   124  117  125 1   
   125  118  122 1   
   126  126  127 1   
   127  126  133 1   
   128  127  128 1   
   129  127  130 1   
   130  127  134 1   
   131  128  129 2   
   132  128  140 1   
   133  130  131 1   
   134  130  132 1   
   135  130  135 1   
   136  131  137 1   
   137  131  138 1   
   138  131  139 1   
   139  132  136 1   
   140  140  141 1   
   141  140  149 1   
   142  141  142 1   
   143  141  144 1   
   144  141  150 1   
   145  142  143 2   
   146  142  162 1   
   147  144  145 1   
   148  144  151 1   
   149  144  152 1   
   150  145  146 1   
   151  145  153 1   
   152  145  154 1   
   153  146  147 1   
   154  146  155 1   
   155  146  156 1   
   156  147  148 1   
   157  147  157 1   
   158  147  158 1   
   159  148  159 1   
   160  148  160 1   
   161  148  161 1   
   162  162  163 1   
   163  162  171 1   
   164  163  164 1   
   165  163  166 1   
   166  163  172 1   
   167  164  165 2   
   168  164  177 1   
   169  166  167 1   
   170  166  173 1   
   171  166  174 1   
   172  167  168 1   
   173  167  175 1   
   174  167  176 1   
   175  168  169 1   
   176  168  170 1   
   177  177  178 1   
   178  177  182 1   
   179  178  179 1   
   180  178  180 1   
   181  178  181 1   
   182  184  185 1   
   183  184  186 1   
   184  187  188 1   
   185  187  189 1   
   186  190  191 1   
   187  190  192 1   
@<TRIPOS>SUBSTRUCTURE
     1 MOL         1 TEMP              0 ****  ****    0 ROOT
