@<TRIPOS>MOLECULE
MOL
  181   177     1     0     0
SMALL
resp


@<TRIPOS>ATOM
      1 C1          8.1580    2.8950    5.9080 c3        1 MOL     -0.287661
      2 C2          7.4220    3.2900    4.5980 c         1 MOL      0.630955
      3 O1          6.4540    4.0610    4.6740 o         1 MOL     -0.584103
      4 H1          7.4650    2.9580    6.7470 hc        1 MOL      0.084181
      5 H2          8.5310    1.8740    5.8220 hc        1 MOL      0.084181
      6 H3          8.9930    3.5750    6.0750 hc        1 MOL      0.084181
      7 N1          7.5700    2.7210    3.3730 n         1 MOL     -0.452668
      8 C3          8.7230    2.0030    2.9500 c3        1 MOL     -0.033650
      9 C4          8.6430    0.4490    2.9260 c         1 MOL      0.495848
     10 O2          7.6010   -0.0850    3.1480 o         1 MOL     -0.408970
     11 C5          9.1230    2.4670    1.5160 c3        1 MOL     -0.191938
     12 C6          8.1190    2.0630    0.5090 c         1 MOL      0.605858
     13 O3          6.9790    2.5720    0.4630 o         1 MOL     -0.693595
     14 O4          8.3200    0.9690   -0.1170 o         1 MOL     -0.693595
     15 H4          6.9100    3.1050    2.7100 hn        1 MOL      0.339701
     16 H5          9.6260    2.2280    3.5150 h1        1 MOL      0.067245
     17 H6         10.1100    2.1550    1.1810 hc        1 MOL      0.052862
     18 H7          9.1830    3.5580    1.4530 hc        1 MOL      0.052862
     19 N2          9.6620   -0.1780    2.3820 n         1 MOL     -0.622948
     20 C7          9.9290   -1.5980    2.4170 c3        1 MOL      0.554937
     21 C8          8.9220   -2.6100    1.8110 c         1 MOL      0.186415
     22 O5          8.6910   -3.6990    2.3780 o         1 MOL     -0.476393
     23 C9         10.4810   -1.9650    3.8170 c3        1 MOL     -0.465206
     24 H8         10.5260    0.3260    2.2540 hn        1 MOL      0.310195
     25 H9         10.7740   -1.7290    1.7400 h1        1 MOL     -0.053478
     26 H10         9.7750   -1.6740    4.5980 hc        1 MOL      0.109938
     27 H11        10.4880   -3.0610    3.8370 hc        1 MOL      0.109938
     28 H12        11.4220   -1.4210    3.9090 hc        1 MOL      0.109938
     29 N3          8.1150   -2.2240    0.8270 n         1 MOL     -0.034343
     30 C10         7.1650   -3.1450    0.1570 c3        1 MOL     -0.202196
     31 C11         6.9210   -2.7870   -1.3370 c         1 MOL      0.556626
     32 O6          6.9080   -1.5730   -1.5890 o         1 MOL     -0.569977
     33 C12         5.8320   -3.2370    0.8550 c3        1 MOL      0.312458
     34 C13         5.1380   -1.9230    1.2490 c         1 MOL      0.545743
     35 O7          4.3810   -1.8760    2.2290 o         1 MOL     -0.654530
     36 O8          5.4220   -0.9230    0.5460 o         1 MOL     -0.654530
     37 H13         8.2220   -1.3130    0.4030 hn        1 MOL      0.119719
     38 H14         7.5750   -4.1610    0.1120 h1        1 MOL      0.038888
     39 H15         5.8590   -3.8240    1.7630 hc        1 MOL     -0.070283
     40 H16         5.1150   -3.8290    0.2930 hc        1 MOL     -0.070283
     41 N4          6.6820   -3.7510   -2.2390 n         1 MOL     -0.449000
     42 C14         6.1990   -3.5130   -3.5840 c3        1 MOL     -0.179893
     43 C15         4.8300   -2.8590   -3.5820 c         1 MOL      0.489240
     44 O9          4.5400   -2.1920   -4.5600 o         1 MOL     -0.520240
     45 H17         6.6580   -4.7060   -1.9060 hn        1 MOL      0.306432
     46 H18         6.1420   -4.4490   -4.1420 h1        1 MOL      0.131358
     47 H19         6.8220   -2.8450   -4.1830 h1        1 MOL      0.131358
     48 N5          4.0220   -3.0900   -2.5510 n         1 MOL     -0.402507
     49 C16         2.6440   -2.4990   -2.4240 c3        1 MOL      0.062869
     50 C17         2.7250   -0.9970   -2.1520 c         1 MOL      0.717123
     51 O10         3.7890   -0.4350   -1.7820 o         1 MOL     -0.633288
     52 C18         1.9810   -3.2060   -1.2180 c3        1 MOL     -0.357588
     53 C19         1.2440   -4.4720   -1.7240 c         1 MOL      0.744411
     54 N6          0.6850   -5.3340   -0.9270 n         1 MOL     -0.830504
     55 O11         1.2700   -4.7080   -2.8900 o         1 MOL     -0.551395
     56 H20         4.2600   -3.7380   -1.8180 hn        1 MOL      0.303147
     57 H21         2.0810   -2.5940   -3.3470 h1        1 MOL      0.099810
     58 H22         1.1890   -2.6890   -0.6780 hc        1 MOL      0.099177
     59 H23         2.6970   -3.4500   -0.4380 hc        1 MOL      0.099177
     60 H24         0.5500   -4.9460   -0.0010 hn        1 MOL      0.389673
     61 H25         0.1190   -6.0650   -1.3350 hn        1 MOL      0.389673
     62 N7          1.6080   -0.2680   -2.3270 n         1 MOL     -0.739042
     63 C20         1.3390    1.1580   -1.9720 c3        1 MOL      0.478128
     64 C21         1.2590    1.9660   -3.2470 c         1 MOL      0.405079
     65 O12         1.8010    1.5790   -4.3410 o         1 MOL     -0.510928
     66 H26         0.8620   -0.7400   -2.8200 hn        1 MOL      0.357696
     67 H27         2.1030    1.6040   -1.3390 h1        1 MOL     -0.018933
     68 H28         0.3800    1.2320   -1.4520 h1        1 MOL     -0.018933
     69 N8          0.6030    3.1870   -3.1540 n         1 MOL     -0.448479
     70 C22         0.1290    4.0570   -2.0180 c3        1 MOL     -0.309612
     71 C23        -1.2910    3.6680   -1.6490 c         1 MOL      0.635482
     72 O13        -2.1420    3.6070   -2.5230 o         1 MOL     -0.543765
     73 C24         0.0980    5.5350   -2.4360 c3        1 MOL      0.581909
     74 C25        -0.0180    6.5740   -1.3470 c3        1 MOL     -0.375634
     75 O14         1.3120    5.8300   -3.1360 oh        1 MOL     -0.683546
     76 H29         0.6130    3.6370   -4.0500 hn        1 MOL      0.293629
     77 H30         0.8750    3.8580   -1.2440 h1        1 MOL      0.112942
     78 H31        -0.6710    5.7460   -3.1710 h1        1 MOL      0.044764
     79 H32         2.0480    5.5400   -2.5960 ho        1 MOL      0.378148
     80 H33         0.7350    6.4160   -0.5730 hc        1 MOL      0.092355
     81 H34         0.0820    7.5440   -1.8280 hc        1 MOL      0.092355
     82 H35        -1.0420    6.3600   -1.0460 hc        1 MOL      0.092355
     83 N9         -1.5850    3.4580   -0.3670 n         1 MOL     -0.505108
     84 C26        -2.8940    2.9600    0.0870 c3        1 MOL      0.018199
     85 C27        -3.7540    4.1310    0.6590 c         1 MOL      0.696608
     86 O15        -3.1780    4.9670    1.3440 o         1 MOL     -0.628163
     87 C28        -2.6610    1.8850    1.2240 c3        1 MOL     -0.010102
     88 C29        -1.8230    0.7100    0.7010 c3        1 MOL      0.101059
     89 C30        -4.0210    1.2600    1.6650 c3        1 MOL     -0.030173
     90 C31        -1.2300   -0.1240    1.8060 c3        1 MOL     -0.202475
     91 H36        -0.8110    3.4550    0.2860 hn        1 MOL      0.265093
     92 H37        -3.3390    2.5180   -0.8010 h1        1 MOL      0.123731
     93 H38        -2.3200    2.3900    2.1270 hc        1 MOL      0.032545
     94 H39        -0.8780    1.0340    0.2530 hc        1 MOL     -0.046543
     95 H40        -2.4220    0.0660    0.0670 hc        1 MOL     -0.046543
     96 H41        -4.5670    0.9610    0.7750 hc        1 MOL      0.000671
     97 H42        -3.7990    0.3280    2.1860 hc        1 MOL      0.000671
     98 H43        -4.6750    1.8880    2.2630 hc        1 MOL      0.000671
     99 H44        -1.8660   -0.2650    2.6840 hc        1 MOL      0.050201
    100 H45        -0.8270   -1.0500    1.4010 hc        1 MOL      0.050201
    101 H46        -0.3450    0.4010    2.1550 hc        1 MOL      0.050201
    102 N10        -5.0240    4.3280    0.4650 n         1 MOL     -0.610191
    103 C32        -5.9550    3.6350   -0.4260 c3        1 MOL      0.336222
    104 C33        -6.8860    2.6510    0.3940 c         1 MOL      0.664524
    105 O16        -6.9690    2.7680    1.6430 o         1 MOL     -0.553537
    106 C34        -6.8040    4.7110   -1.1740 c3        1 MOL     -0.267615
    107 C35        -7.5390    5.8000   -0.3520 c         1 MOL      0.750564
    108 O17        -8.6070    5.4930    0.1030 o         1 MOL     -0.726126
    109 O18        -6.9380    6.8480   -0.0910 o         1 MOL     -0.726126
    110 H47        -5.4020    5.1700    0.8780 hn        1 MOL      0.335939
    111 H48        -5.3930    3.0550   -1.1500 h1        1 MOL     -0.058970
    112 H49        -7.5330    4.2300   -1.8200 hc        1 MOL      0.015848
    113 H50        -6.1360    5.1840   -1.8940 hc        1 MOL      0.015848
    114 N11        -7.6900    1.8310   -0.2610 n         1 MOL     -0.663693
    115 C36        -8.3940    0.6460    0.2550 c3        1 MOL      0.337128
    116 C37        -8.8470   -0.3250   -0.9060 c         1 MOL      0.373159
    117 O19        -9.4810    0.2060   -1.8400 o         1 MOL     -0.497726
    118 C38        -9.6400    0.9630    1.0050 c3        1 MOL     -0.249923
    119 C39       -10.2230   -0.2610    1.7330 ca        1 MOL      0.048803
    120 C40       -11.1470   -1.1230    1.1330 ca        1 MOL     -0.156183
    121 C41        -9.7630   -0.5960    3.0170 ca        1 MOL     -0.156183
    122 C42       -11.6770   -2.2780    1.8180 ca        1 MOL     -0.088754
    123 C43       -10.4210   -1.6320    3.7280 ca        1 MOL     -0.088754
    124 C44       -11.3180   -2.4990    3.1190 ca        1 MOL     -0.142774
    125 H51        -7.6320    1.9260   -1.2690 hn        1 MOL      0.306642
    126 H52        -7.7570    0.1800    0.9930 h1        1 MOL     -0.000234
    127 H53       -10.3520    1.3850    0.2980 hc        1 MOL      0.122883
    128 H54        -9.4950    1.7150    1.7850 hc        1 MOL      0.122883
    129 H55       -11.3630   -0.9390    0.0900 ha        1 MOL      0.115047
    130 H56        -9.0050   -0.0250    3.5340 ha        1 MOL      0.115047
    131 H57       -12.4060   -2.8750    1.2910 ha        1 MOL      0.088493
    132 H58       -10.1870   -1.8060    4.7770 ha        1 MOL      0.088493
    133 H59       -11.6590   -3.3650    3.6810 ha        1 MOL      0.098834
    134 N12        -8.5180   -1.6420   -0.8840 n         1 MOL     -0.227086
    135 C45        -7.6440   -2.3570    0.0370 c3        1 MOL      0.284154
    136 C46        -6.1660   -1.9810    0.0900 c         1 MOL      0.372197
    137 O20        -5.7210   -0.9340   -0.3980 o         1 MOL     -0.545938
    138 C47        -7.9540   -3.8150   -0.3190 c3        1 MOL     -0.021717
    139 C48        -9.3810   -3.8100   -0.7700 c3        1 MOL     -0.027762
    140 C49        -9.4430   -2.5180   -1.5260 c3        1 MOL      0.113084
    141 H60        -7.9650   -2.2150    1.0680 h1        1 MOL     -0.032173
    142 H61        -7.2990   -4.2830   -1.0540 hc        1 MOL      0.021213
    143 H62        -7.8120   -4.3590    0.6190 hc        1 MOL      0.021213
    144 H63        -9.6120   -4.6180   -1.4550 hc        1 MOL      0.004552
    145 H64       -10.0340   -3.9330    0.0930 hc        1 MOL      0.004552
    146 H65        -9.1300   -2.5660   -2.5700 h1        1 MOL      0.015983
    147 H66       -10.4700   -2.1890   -1.6290 h1        1 MOL      0.015983
    148 N13        -5.3930   -2.8550    0.7170 n         1 MOL     -0.265797
    149 C50        -3.9280   -2.6430    0.9930 c3        1 MOL      0.056356
    150 C51        -3.4270   -3.2450    2.3300 c         1 MOL      0.572190
    151 O21        -2.2810   -3.6480    2.4020 o         1 MOL     -0.569071
    152 C52        -2.9660   -3.1470   -0.1540 c3        1 MOL     -0.151506
    153 C53        -2.8670   -4.7000   -0.3060 c3        1 MOL     -0.273348
    154 C54        -3.8970   -5.2650   -1.2740 c         1 MOL      0.815021
    155 O22        -3.8160   -5.0510   -2.4480 o         1 MOL     -0.755337
    156 O23        -4.8110   -5.9480   -0.7750 o         1 MOL     -0.755337
    157 H67        -5.8260   -3.7160    1.0350 hn        1 MOL      0.160936
    158 H68        -3.7530   -1.5690    1.0830 h1        1 MOL      0.183274
    159 H69        -1.9570   -2.7300   -0.1540 hc        1 MOL      0.080907
    160 H70        -3.3470   -2.7650   -1.1020 hc        1 MOL      0.080907
    161 H71        -3.0340   -5.1700    0.6570 hc        1 MOL      0.032665
    162 H72        -1.8760   -5.0120   -0.6320 hc        1 MOL      0.032665
    163 N14        -4.2240   -3.3200    3.3980 n         1 MOL     -0.462064
    164 C55        -5.0170   -2.2260    3.8710 c3        1 MOL      0.019839
    165 H73        -4.5340   -1.7760    4.7390 h1        1 MOL      0.032280
    166 H74        -5.1150   -1.4800    3.0830 h1        1 MOL      0.032280
    167 H75        -6.0050   -2.5880    4.1540 h1        1 MOL      0.032280
    168 H76        -3.8760   -3.9320    4.1210 hn        1 MOL      0.292226
    169 Ca1         5.9980    0.8480   -1.2140 Ca        1 MOL      1.754674
    170 O24         4.8360    3.0540   -2.3470 oh        1 MOL     -0.796389
    171 H77         4.2740    3.6780   -1.8820 ho        1 MOL      0.397953
    172 H78         4.8890    3.4090   -3.2420 ho        1 MOL      0.397953
    173 O25         3.8710    1.8050    0.5510 oh        1 MOL     -0.796389
    174 H79         3.2270    1.1220    0.6940 ho        1 MOL      0.397953
    175 H80         4.4170    1.8030    1.3370 ho        1 MOL      0.397953
    176 O26         7.6710    2.3120   -2.6400 oh        1 MOL     -0.796389
    177 H81         7.5790    3.2580   -2.5280 ho        1 MOL      0.397953
    178 H82         8.5900    2.1850   -2.8780 ho        1 MOL      0.397953
    179 O27         5.8480    0.5910   -3.9310 oh        1 MOL     -0.796389
    180 H83         6.6690    0.8800   -4.3220 ho        1 MOL      0.397953
    181 H84         5.4120    0.1030   -4.6260 ho        1 MOL      0.397953
@<TRIPOS>BOND
     1    1    2 1   
     2    1    4 1   
     3    1    5 1   
     4    1    6 1   
     5    2    3 2   
     6    2    7 1   
     7    7    8 1   
     8    7   15 1   
     9    8    9 1   
    10    8   11 1   
    11    8   16 1   
    12    9   10 2   
    13    9   19 1   
    14   11   12 1   
    15   11   17 1   
    16   11   18 1   
    17   12   13 1   
    18   12   14 1   
    19   19   20 1   
    20   19   24 1   
    21   20   21 1   
    22   20   23 1   
    23   20   25 1   
    24   21   22 2   
    25   21   29 1   
    26   23   26 1   
    27   23   27 1   
    28   23   28 1   
    29   29   30 1   
    30   29   37 1   
    31   30   31 1   
    32   30   33 1   
    33   30   38 1   
    34   31   32 2   
    35   31   41 1   
    36   33   34 1   
    37   33   39 1   
    38   33   40 1   
    39   34   35 1   
    40   34   36 1   
    41   41   42 1   
    42   41   45 1   
    43   42   43 1   
    44   42   46 1   
    45   42   47 1   
    46   43   44 2   
    47   43   48 1   
    48   48   49 1   
    49   48   56 1   
    50   49   50 1   
    51   49   52 1   
    52   49   57 1   
    53   50   51 2   
    54   50   62 1   
    55   52   53 1   
    56   52   58 1   
    57   52   59 1   
    58   53   54 1   
    59   53   55 2   
    60   54   60 1   
    61   54   61 1   
    62   62   63 1   
    63   62   66 1   
    64   63   64 1   
    65   63   67 1   
    66   63   68 1   
    67   64   65 2   
    68   64   69 1   
    69   69   70 1   
    70   69   76 1   
    71   70   71 1   
    72   70   73 1   
    73   70   77 1   
    74   71   72 2   
    75   71   83 1   
    76   73   74 1   
    77   73   75 1   
    78   73   78 1   
    79   74   80 1   
    80   74   81 1   
    81   74   82 1   
    82   75   79 1   
    83   83   84 1   
    84   83   91 1   
    85   84   85 1   
    86   84   87 1   
    87   84   92 1   
    88   85   86 2   
    89   85  102 1   
    90   87   88 1   
    91   87   89 1   
    92   87   93 1   
    93   88   90 1   
    94   88   94 1   
    95   88   95 1   
    96   89   96 1   
    97   89   97 1   
    98   89   98 1   
    99   90   99 1   
   100   90  100 1   
   101   90  101 1   
   102  102  103 1   
   103  102  110 1   
   104  103  104 1   
   105  103  106 1   
   106  103  111 1   
   107  104  105 2   
   108  104  114 1   
   109  106  107 1   
   110  106  112 1   
   111  106  113 1   
   112  107  108 1   
   113  107  109 1   
   114  114  115 1   
   115  114  125 1   
   116  115  116 1   
   117  115  118 1   
   118  115  126 1   
   119  116  117 2   
   120  116  134 1   
   121  118  119 1   
   122  118  127 1   
   123  118  128 1   
   124  119  120 ar  
   125  119  121 ar  
   126  120  122 ar  
   127  120  129 1   
   128  121  123 ar  
   129  121  130 1   
   130  122  124 ar  
   131  122  131 1   
   132  123  124 ar  
   133  123  132 1   
   134  124  133 1   
   135  134  135 1   
   136  134  140 1   
   137  135  136 1   
   138  135  138 1   
   139  135  141 1   
   140  136  137 2   
   141  136  148 1   
   142  138  139 1   
   143  138  142 1   
   144  138  143 1   
   145  139  140 1   
   146  139  144 1   
   147  139  145 1   
   148  140  146 1   
   149  140  147 1   
   150  148  149 1   
   151  148  157 1   
   152  149  150 1   
   153  149  152 1   
   154  149  158 1   
   155  150  151 2   
   156  150  163 1   
   157  152  153 1   
   158  152  159 1   
   159  152  160 1   
   160  153  154 1   
   161  153  161 1   
   162  153  162 1   
   163  154  155 1   
   164  154  156 1   
   165  163  164 1   
   166  163  168 1   
   167  164  165 1   
   168  164  166 1   
   169  164  167 1   
   170  170  171 1   
   171  170  172 1   
   172  173  174 1   
   173  173  175 1   
   174  176  177 1   
   175  176  178 1   
   176  179  180 1   
   177  179  181 1   
@<TRIPOS>SUBSTRUCTURE
     1 MOL         1 TEMP              0 ****  ****    0 ROOT
