@<TRIPOS>MOLECULE
MOL
  189   185     1     0     0
SMALL
resp


@<TRIPOS>ATOM
      1 C1         11.5730   -6.6600    1.0800 c3        1 MOL     -0.284881
      2 C2         11.4750   -5.2790    0.5230 c         1 MOL      0.555236
      3 O1         12.4840   -4.5320    0.5750 o         1 MOL     -0.568473
      4 H1         11.4920   -7.3840    0.2700 hc        1 MOL      0.079005
      5 H2         12.5330   -6.7820    1.5820 hc        1 MOL      0.079005
      6 H3         10.7660   -6.8230    1.7930 hc        1 MOL      0.079005
      7 N1         10.4070   -4.8500   -0.1240 n         1 MOL     -0.040773
      8 C3         10.0960   -3.4820   -0.6230 c3        1 MOL     -0.661298
      9 C4          8.8340   -2.8870    0.0060 c         1 MOL      0.632526
     10 O2          7.8420   -3.5030    0.0940 o         1 MOL     -0.564635
     11 C5         10.1160   -3.5690   -2.1820 c3        1 MOL      0.247067
     12 C6          9.2260   -4.6840   -2.7870 c         1 MOL      0.548904
     13 O3          9.7320   -5.2780   -3.7580 o         1 MOL     -0.658337
     14 O4          8.1260   -4.8830   -2.2660 o         1 MOL     -0.658337
     15 H4          9.6130   -5.4830   -0.1370 hn        1 MOL      0.092865
     16 H5         10.9710   -2.8900   -0.3650 h1        1 MOL      0.184037
     17 H6         11.0770   -3.7970   -2.6190 hc        1 MOL      0.015309
     18 H7          9.7700   -2.6060   -2.5560 hc        1 MOL      0.015309
     19 N2          8.9130   -1.5760    0.5000 n         1 MOL     -0.375264
     20 C7          7.7680   -0.7870    0.9400 c3        1 MOL     -0.046106
     21 C8          7.1300   -0.0730   -0.2790 c         1 MOL      0.621891
     22 O5          7.6540    0.9630   -0.6650 o         1 MOL     -0.564624
     23 C9          8.1010    0.1060    2.1060 c3        1 MOL     -0.360676
     24 C10         8.1560   -0.5370    3.4840 c3        1 MOL      0.237024
     25 C11         8.3890    0.4060    4.6600 c3        1 MOL     -0.058332
     26 C12         7.9990   -0.4570    5.8950 c3        1 MOL      0.165215
     27 N3          8.5710    0.1020    7.0740 n4        1 MOL     -0.314484
     28 H8          9.8280   -1.1550    0.5170 hn        1 MOL      0.312557
     29 H9          6.9990   -1.3920    1.4400 h1        1 MOL      0.056899
     30 H10         7.2490    0.7890    2.1670 hc        1 MOL      0.125914
     31 H11         8.9430    0.7070    1.7640 hc        1 MOL      0.125914
     32 H12         8.9630   -1.2780    3.4610 hc        1 MOL     -0.035312
     33 H13         7.2650   -1.1430    3.6300 hc        1 MOL     -0.035312
     34 H14         7.7460    1.2820    4.5570 hc        1 MOL      0.036422
     35 H15         9.4290    0.7420    4.7500 hc        1 MOL      0.036422
     36 H16         8.3760   -1.4690    5.7450 hx        1 MOL      0.025200
     37 H17         6.9210   -0.5610    5.9970 hx        1 MOL      0.025200
     38 H18         8.0120   -0.2690    7.8300 hn        1 MOL      0.280696
     39 H19         9.5030   -0.2780    7.1990 hn        1 MOL      0.280696
     40 H20         8.4640    1.1030    7.1060 hn        1 MOL      0.280696
     41 N4          5.9570   -0.4350   -0.5940 n         1 MOL     -0.425746
     42 C13         4.9140   -0.0170   -1.5900 c3        1 MOL      0.030701
     43 C14         3.6490    0.3000   -0.7260 c         1 MOL      0.663854
     44 O6          3.3600   -0.1750    0.3210 o         1 MOL     -0.544431
     45 C15         4.8160   -1.0450   -2.7810 c3        1 MOL     -0.015552
     46 C16         4.8930   -2.5300   -2.3330 c         1 MOL      0.823904
     47 O7          4.6680   -2.9560   -1.1860 o         1 MOL     -0.804026
     48 O8          5.1760   -3.3490   -3.2190 o         1 MOL     -0.804026
     49 H21         5.6380   -1.2410   -0.0750 hn        1 MOL      0.183818
     50 H22         5.2060    0.9420   -2.0340 h1        1 MOL      0.106735
     51 H23         5.5220   -0.8690   -3.5980 hc        1 MOL      0.032046
     52 H24         3.8860   -1.0640   -3.3450 hc        1 MOL      0.032046
     53 N5          2.7880    1.1950   -1.2270 n         1 MOL     -0.680370
     54 C17         2.7350    1.9260   -2.5130 c3        1 MOL      0.047832
     55 C18         3.5630    3.2640   -2.4360 c         1 MOL      0.514745
     56 O9          4.1510    3.6410   -1.4200 o         1 MOL     -0.536821
     57 H25         2.0430    1.5470   -0.6510 hn        1 MOL      0.424965
     58 H26         1.7200    2.1580   -2.8320 h1        1 MOL      0.073757
     59 H27         3.1180    1.2980   -3.3250 h1        1 MOL      0.073757
     60 N6          3.4710    4.0210   -3.5190 n         1 MOL     -0.515843
     61 C19         3.9880    5.3860   -3.6270 c3        1 MOL      0.261560
     62 C20         3.5470    6.3220   -2.4750 c         1 MOL      0.352805
     63 O10         4.4620    6.8580   -1.7620 o         1 MOL     -0.543643
     64 C21         3.5880    5.9480   -4.9470 c3        1 MOL     -0.445800
     65 C22         2.0610    5.7890   -5.1340 c         1 MOL      0.764669
     66 O11         1.2660    6.7800   -4.8850 o         1 MOL     -0.666143
     67 O12         1.6350    4.7040   -5.4400 o         1 MOL     -0.666143
     68 H28         2.9720    3.6970   -4.3240 hn        1 MOL      0.292017
     69 H29         5.0770    5.3470   -3.5580 h1        1 MOL      0.044136
     70 H30         4.1590    5.4240   -5.7150 hc        1 MOL      0.103115
     71 H31         3.8160    7.0190   -5.0060 hc        1 MOL      0.103115
     72 N7          2.2630    6.5450   -2.3230 n         1 MOL     -0.085528
     73 C23         1.7820    7.3000   -1.2340 c3        1 MOL     -0.190639
     74 C24         1.5280    6.6780    0.1490 c         1 MOL      0.627072
     75 O13         1.2630    7.3750    1.0850 o         1 MOL     -0.572824
     76 H32         1.5900    6.1960   -2.9930 hn        1 MOL      0.215142
     77 H33         0.7840    7.6390   -1.5170 h1        1 MOL      0.087807
     78 H34         2.4090    8.1960   -1.2430 h1        1 MOL      0.087807
     79 N8          1.4270    5.3370    0.2290 n         1 MOL     -0.308226
     80 C25         1.2620    4.4580    1.4040 c3        1 MOL     -0.058468
     81 C26         0.6190    3.0800    1.0800 c         1 MOL      0.437672
     82 O14         0.4630    2.7030   -0.1050 o         1 MOL     -0.510835
     83 C27         2.6260    4.2640    1.9980 c3        1 MOL      0.388188
     84 C28         3.5440    5.4430    2.0810 c3        1 MOL     -0.513581
     85 O15         2.3820    3.9740    3.3970 oh        1 MOL     -0.664129
     86 H35         1.3960    4.8560   -0.6610 hn        1 MOL      0.169278
     87 H36         0.5960    4.9620    2.1000 h1        1 MOL      0.082127
     88 H37         3.1880    3.4300    1.5810 h1        1 MOL      0.074412
     89 H38         1.9700    4.7600    3.7830 ho        1 MOL      0.383671
     90 H39         3.8770    5.8460    1.1290 hc        1 MOL      0.139143
     91 H40         3.1700    6.3560    2.5320 hc        1 MOL      0.139143
     92 H41         4.3900    5.1000    2.6730 hc        1 MOL      0.139143
     93 N9          0.3500    2.2430    2.0920 n         1 MOL     -0.340786
     94 C29         0.0930    0.7880    1.8800 c3        1 MOL     -0.201836
     95 C30        -1.1520    0.6440    1.0530 c         1 MOL      0.485913
     96 O16        -1.1380   -0.2010    0.1540 o         1 MOL     -0.521026
     97 C31        -0.0860    0.0010    3.1990 c3        1 MOL      0.297728
     98 C32         1.0830    0.3390    4.1360 c3        1 MOL     -0.000411
     99 C33        -0.1060   -1.5000    2.7780 c3        1 MOL     -0.217853
    100 C34         1.0260   -0.4090    5.5110 c3        1 MOL     -0.429294
    101 H42         0.5370    2.5460    3.0410 hn        1 MOL      0.231198
    102 H43         0.9340    0.3500    1.3380 h1        1 MOL      0.090422
    103 H44        -1.0180    0.3070    3.6680 hc        1 MOL     -0.046404
    104 H45         1.1270    1.4120    4.3240 hc        1 MOL      0.050931
    105 H46         2.0260    0.1050    3.6510 hc        1 MOL      0.050931
    106 H47         0.7600   -1.7200    2.1470 hc        1 MOL      0.065344
    107 H48        -0.0600   -2.1450    3.6490 hc        1 MOL      0.065344
    108 H49        -1.0890   -1.7290    2.3620 hc        1 MOL      0.065344
    109 H50         1.3670   -1.4240    5.3520 hc        1 MOL      0.100602
    110 H51         1.7170    0.0370    6.2260 hc        1 MOL      0.100602
    111 H52         0.0480   -0.3320    5.9940 hc        1 MOL      0.100602
    112 N10        -2.2210    1.4060    1.3580 n         1 MOL     -0.095554
    113 C35        -3.5560    1.2670    0.6860 c3        1 MOL     -0.692973
    114 C36        -4.6340    1.9120    1.4930 c         1 MOL      0.843601
    115 O17        -4.3870    2.7940    2.3090 o         1 MOL     -0.554231
    116 C37        -3.5340    2.0130   -0.6850 c3        1 MOL      0.649753
    117 C38        -2.9070    3.4430   -0.6370 c3        1 MOL     -0.541435
    118 O18        -2.7810    1.2520   -1.5680 oh        1 MOL     -0.664879
    119 H53        -2.0400    2.1200    2.0550 hn        1 MOL      0.190125
    120 H54        -3.7950    0.2100    0.7070 h1        1 MOL      0.201211
    121 H55        -4.5580    2.0780   -1.0430 h1        1 MOL     -0.009040
    122 H56        -2.0750    0.8650   -1.0440 ho        1 MOL      0.423189
    123 H57        -3.0800    3.9120   -1.6040 hc        1 MOL      0.139772
    124 H58        -3.2640    4.0190    0.2180 hc        1 MOL      0.139772
    125 H59        -1.8180    3.4610   -0.6440 hc        1 MOL      0.139772
    126 N11        -5.8690    1.3740    1.3560 n         1 MOL     -0.546874
    127 C39        -7.0210    1.9280    2.1030 c3        1 MOL     -0.203310
    128 C40        -8.3050    1.0330    2.1710 c         1 MOL      0.630401
    129 O19        -9.0500    1.0340    3.1470 o         1 MOL     -0.549568
    130 C41        -7.4310    3.2970    1.5140 c3        1 MOL      0.298364
    131 C42        -8.5880    4.0220    2.2000 c3        1 MOL     -0.441624
    132 O20        -7.7330    3.0610    0.2040 oh        1 MOL     -0.607774
    133 H60        -6.0050    0.7050    0.6160 hn        1 MOL      0.329222
    134 H61        -6.7400    2.0070    3.1550 h1        1 MOL      0.132323
    135 H62        -6.6120    4.0190    1.5730 h1        1 MOL      0.065070
    136 H63        -8.4770    3.6260   -0.0150 ho        1 MOL      0.398525
    137 H64        -8.5640    5.1050    2.1050 hc        1 MOL      0.122066
    138 H65        -9.5580    3.5970    1.9360 hc        1 MOL      0.122066
    139 H66        -8.6110    3.7900    3.2620 hc        1 MOL      0.122066
    140 N12        -8.5910    0.3040    1.1130 n         1 MOL     -0.386270
    141 C43        -9.7400   -0.5960    0.9190 c3        1 MOL     -0.036448
    142 C44        -9.4700   -1.4560   -0.2990 c         1 MOL      0.473765
    143 O21        -8.9360   -1.0240   -1.3100 o         1 MOL     -0.483624
    144 C45       -11.0780    0.1870    0.7380 c3        1 MOL     -0.223286
    145 C46       -12.2840   -0.8090    0.5620 c3        1 MOL      0.288538
    146 C47       -13.6460   -0.1360    0.2450 c3        1 MOL     -0.157385
    147 C48       -14.7480   -1.1820    0.0010 c3        1 MOL      0.247824
    148 N13       -15.9900   -0.5880   -0.5400 n4        1 MOL     -0.190218
    149 H67        -7.9740    0.4890    0.3340 hn        1 MOL      0.272734
    150 H68        -9.8450   -1.2470    1.7890 h1        1 MOL      0.078681
    151 H69       -11.1520    0.8620   -0.1150 hc        1 MOL      0.085755
    152 H70       -11.2360    0.7740    1.6460 hc        1 MOL      0.085755
    153 H71       -12.2950   -1.4610    1.4350 hc        1 MOL     -0.043203
    154 H72       -12.2040   -1.5040   -0.2720 hc        1 MOL     -0.043203
    155 H73       -13.5460    0.3880   -0.7080 hc        1 MOL      0.023906
    156 H74       -14.0020    0.4780    1.0780 hc        1 MOL      0.023906
    157 H75       -14.9610   -1.6420    0.9640 hx        1 MOL     -0.006049
    158 H76       -14.3490   -1.9290   -0.6880 hx        1 MOL     -0.006049
    159 H77       -16.3580    0.0670    0.1340 hn        1 MOL      0.260470
    160 H78       -15.8610    0.0270   -1.3260 hn        1 MOL      0.260470
    161 H79       -16.6460   -1.3220   -0.7760 hn        1 MOL      0.260470
    162 N14        -9.8350   -2.7390   -0.2120 n         1 MOL     -0.359040
    163 C49        -9.8070   -3.6330   -1.3350 c3        1 MOL      0.108273
    164 C50        -8.4220   -4.1620   -1.7670 c         1 MOL      0.401153
    165 O22        -8.2720   -4.4400   -2.8920 o         1 MOL     -0.533389
    166 C51       -10.7480   -4.8330   -1.1630 c3        1 MOL      0.217552
    167 C52       -12.2490   -4.3530   -1.2300 c3        1 MOL     -0.384582
    168 C53       -13.1940   -5.5280   -1.3020 c         1 MOL      0.695348
    169 O23       -14.1910   -5.4840   -0.5790 o         1 MOL     -0.681145
    170 O24       -12.9300   -6.6080   -1.8970 o         1 MOL     -0.681145
    171 H80       -10.3560   -3.0910    0.5730 hn        1 MOL      0.254837
    172 H81       -10.2070   -3.0660   -2.1770 h1        1 MOL      0.025755
    173 H82       -10.4330   -5.2790   -0.2180 hc        1 MOL     -0.008682
    174 H83       -10.5290   -5.6010   -1.8990 hc        1 MOL     -0.008682
    175 H84       -12.4090   -3.6820   -2.0710 hc        1 MOL      0.071052
    176 H85       -12.3730   -3.7160   -0.3580 hc        1 MOL      0.071052
    177 N15        -7.5120   -4.5600   -0.9320 n         1 MOL     -0.295297
    178 C54        -7.4250   -4.6030    0.5080 c3        1 MOL     -0.008911
    179 H86        -7.0160   -3.6620    0.8760 h1        1 MOL      0.029496
    180 H87        -8.4180   -4.7560    0.9290 h1        1 MOL      0.029496
    181 H88        -6.7730   -5.4230    0.8090 h1        1 MOL      0.029496
    182 H89        -6.7360   -4.8350   -1.5120 hn        1 MOL      0.267565
    183 Ca1         5.9590   -5.2170   -1.0750 Ca        1 MOL      1.686572
    184 O25         3.3650   -5.5340   -0.8520 oh        1 MOL     -0.785744
    185 H90         3.1320   -6.4710   -0.8320 ho        1 MOL      0.402802
    186 H91         2.5650   -5.1000   -1.1480 ho        1 MOL      0.402802
    187 O26         5.1060   -4.5620    1.6600 oh        1 MOL     -0.785744
    188 H92         4.4080   -3.9050    1.7730 ho        1 MOL      0.402802
    189 H93         5.8300   -4.2230    2.1880 ho        1 MOL      0.402802
@<TRIPOS>BOND
     1    1    2 1   
     2    1    4 1   
     3    1    5 1   
     4    1    6 1   
     5    2    3 2   
     6    2    7 1   
     7    7    8 1   
     8    7   15 1   
     9    8    9 1   
    10    8   11 1   
    11    8   16 1   
    12    9   10 2   
    13    9   19 1   
    14   11   12 1   
    15   11   17 1   
    16   11   18 1   
    17   12   13 1   
    18   12   14 1   
    19   19   20 1   
    20   19   28 1   
    21   20   21 1   
    22   20   23 1   
    23   20   29 1   
    24   21   22 2   
    25   21   41 1   
    26   23   24 1   
    27   23   30 1   
    28   23   31 1   
    29   24   25 1   
    30   24   32 1   
    31   24   33 1   
    32   25   26 1   
    33   25   34 1   
    34   25   35 1   
    35   26   27 1   
    36   26   36 1   
    37   26   37 1   
    38   27   38 1   
    39   27   39 1   
    40   27   40 1   
    41   41   42 1   
    42   41   49 1   
    43   42   43 1   
    44   42   45 1   
    45   42   50 1   
    46   43   44 2   
    47   43   53 1   
    48   45   46 1   
    49   45   51 1   
    50   45   52 1   
    51   46   47 1   
    52   46   48 1   
    53   53   54 1   
    54   53   57 1   
    55   54   55 1   
    56   54   58 1   
    57   54   59 1   
    58   55   56 2   
    59   55   60 1   
    60   60   61 1   
    61   60   68 1   
    62   61   62 1   
    63   61   64 1   
    64   61   69 1   
    65   62   63 2   
    66   62   72 1   
    67   64   65 1   
    68   64   70 1   
    69   64   71 1   
    70   65   66 1   
    71   65   67 1   
    72   72   73 1   
    73   72   76 1   
    74   73   74 1   
    75   73   77 1   
    76   73   78 1   
    77   74   75 2   
    78   74   79 1   
    79   79   80 1   
    80   79   86 1   
    81   80   81 1   
    82   80   83 1   
    83   80   87 1   
    84   81   82 2   
    85   81   93 1   
    86   83   84 1   
    87   83   85 1   
    88   83   88 1   
    89   84   90 1   
    90   84   91 1   
    91   84   92 1   
    92   85   89 1   
    93   93   94 1   
    94   93  101 1   
    95   94   95 1   
    96   94   97 1   
    97   94  102 1   
    98   95   96 2   
    99   95  112 1   
   100   97   98 1   
   101   97   99 1   
   102   97  103 1   
   103   98  100 1   
   104   98  104 1   
   105   98  105 1   
   106   99  106 1   
   107   99  107 1   
   108   99  108 1   
   109  100  109 1   
   110  100  110 1   
   111  100  111 1   
   112  112  113 1   
   113  112  119 1   
   114  113  114 1   
   115  113  116 1   
   116  113  120 1   
   117  114  115 2   
   118  114  126 1   
   119  116  117 1   
   120  116  118 1   
   121  116  121 1   
   122  117  123 1   
   123  117  124 1   
   124  117  125 1   
   125  118  122 1   
   126  126  127 1   
   127  126  133 1   
   128  127  128 1   
   129  127  130 1   
   130  127  134 1   
   131  128  129 2   
   132  128  140 1   
   133  130  131 1   
   134  130  132 1   
   135  130  135 1   
   136  131  137 1   
   137  131  138 1   
   138  131  139 1   
   139  132  136 1   
   140  140  141 1   
   141  140  149 1   
   142  141  142 1   
   143  141  144 1   
   144  141  150 1   
   145  142  143 2   
   146  142  162 1   
   147  144  145 1   
   148  144  151 1   
   149  144  152 1   
   150  145  146 1   
   151  145  153 1   
   152  145  154 1   
   153  146  147 1   
   154  146  155 1   
   155  146  156 1   
   156  147  148 1   
   157  147  157 1   
   158  147  158 1   
   159  148  159 1   
   160  148  160 1   
   161  148  161 1   
   162  162  163 1   
   163  162  171 1   
   164  163  164 1   
   165  163  166 1   
   166  163  172 1   
   167  164  165 2   
   168  164  177 1   
   169  166  167 1   
   170  166  173 1   
   171  166  174 1   
   172  167  168 1   
   173  167  175 1   
   174  167  176 1   
   175  168  169 1   
   176  168  170 1   
   177  177  178 1   
   178  177  182 1   
   179  178  179 1   
   180  178  180 1   
   181  178  181 1   
   182  184  185 1   
   183  184  186 1   
   184  187  188 1   
   185  187  189 1   
@<TRIPOS>SUBSTRUCTURE
     1 MOL         1 TEMP              0 ****  ****    0 ROOT
