@<TRIPOS>MOLECULE
MOL
  178   175     1     0     0
SMALL
resp


@<TRIPOS>ATOM
      1 C1          1.8590   -0.6570    5.4190 c3        1 MOL     -0.306070
      2 C2          2.7780   -0.3450    4.2210 c         1 MOL      0.588988
      3 O1          2.2490    0.1760    3.2500 o         1 MOL     -0.518686
      4 H1          0.9850   -1.2100    5.0720 hc        1 MOL      0.072839
      5 H2          2.4020   -1.2590    6.1480 hc        1 MOL      0.072839
      6 H3          1.5370    0.2750    5.8840 hc        1 MOL      0.072839
      7 N1          4.1220   -0.5230    4.3770 n         1 MOL     -0.434615
      8 C3          5.2300   -0.1820    3.4940 c3        1 MOL      0.056723
      9 C4          5.5550   -1.2700    2.4730 c         1 MOL      0.542193
     10 O2          6.4880   -1.2730    1.6640 o         1 MOL     -0.518207
     11 C5          6.4340    0.1170    4.3820 c3        1 MOL      0.049341
     12 C6          7.6970    0.6530    3.7890 c         1 MOL      0.662223
     13 O3          7.6220    1.6140    2.9320 o         1 MOL     -0.714960
     14 O4          8.7460    0.1760    4.2960 o         1 MOL     -0.714960
     15 H4          4.3380   -0.8910    5.2910 hn        1 MOL      0.252403
     16 H5          5.0430    0.7180    2.9110 h1        1 MOL      0.054858
     17 H6          6.5800   -0.8270    4.9140 hc        1 MOL     -0.054475
     18 H7          6.1520    0.8600    5.1300 hc        1 MOL     -0.054475
     19 N2          4.8620   -2.3970    2.5670 n         1 MOL     -0.445596
     20 C7          4.8250   -3.5650    1.6550 c3        1 MOL      0.340291
     21 C8          4.5240   -3.0910    0.1960 c         1 MOL      0.464687
     22 O5          3.3850   -2.9900   -0.2090 o         1 MOL     -0.655548
     23 C9          6.0590   -4.4140    1.9400 c3        1 MOL     -0.545848
     24 H8          4.3270   -2.4530    3.4270 hn        1 MOL      0.232392
     25 H9          3.9360   -4.0890    1.9890 h1        1 MOL      0.044547
     26 H10         6.9880   -3.8370    1.9490 hc        1 MOL      0.136340
     27 H11         5.9210   -4.7220    2.9810 hc        1 MOL      0.136340
     28 H12         6.0490   -5.2260    1.2140 hc        1 MOL      0.136340
     29 N3          5.5920   -2.7290   -0.5050 n         1 MOL     -0.204752
     30 C10         5.6200   -2.2200   -1.8730 c3        1 MOL     -0.059598
     31 C11         5.9130   -0.7150   -2.1190 c         1 MOL      0.470857
     32 O6          5.9420   -0.3120   -3.3100 o         1 MOL     -0.553263
     33 C12         6.4780   -3.1580   -2.7380 c3        1 MOL     -0.019223
     34 C13         6.3580   -4.6080   -2.5790 c         1 MOL      0.657247
     35 O7          7.4630   -5.1900   -2.5750 o         1 MOL     -0.698798
     36 O8          5.2590   -5.1780   -2.6030 o         1 MOL     -0.698798
     37 H13         6.4350   -2.8070    0.0420 hn        1 MOL      0.208106
     38 H14         4.5960   -2.2700   -2.2490 h1        1 MOL      0.084461
     39 H15         7.5160   -2.8220   -2.7330 hc        1 MOL     -0.010679
     40 H16         6.1160   -2.9780   -3.7500 hc        1 MOL     -0.010679
     41 N4          6.1340    0.1280   -1.0880 n         1 MOL     -0.129276
     42 C14         6.4520    1.5310   -1.1290 c3        1 MOL     -0.082094
     43 C15         5.3260    2.3000   -1.8230 c         1 MOL      0.579883
     44 O9          5.5580    3.2980   -2.4910 o         1 MOL     -0.582456
     45 H17         6.1550   -0.2060   -0.1250 hn        1 MOL      0.137834
     46 H18         7.3750    1.6410   -1.6940 h1        1 MOL      0.065762
     47 H19         6.5390    1.9410   -0.1280 h1        1 MOL      0.065762
     48 N5          4.0820    1.8110   -1.6930 n         1 MOL     -0.193522
     49 C16         2.8990    2.3340   -2.2390 c3        1 MOL     -0.329483
     50 C17         2.6000    3.7220   -1.6510 c         1 MOL      0.577249
     51 O10         2.6700    3.9230   -0.4460 o         1 MOL     -0.514115
     52 C18         1.7850    1.3540   -2.0370 c3        1 MOL     -0.191570
     53 C19         2.0210    0.0340   -2.8500 c         1 MOL      0.713628
     54 N6          1.5830    0.0540   -4.0870 n         1 MOL     -0.826002
     55 O11         2.5260   -0.9980   -2.3300 o         1 MOL     -0.577996
     56 H20         4.0720    0.9630   -1.1410 hn        1 MOL      0.177805
     57 H21         3.1590    2.3250   -3.2980 h1        1 MOL      0.119878
     58 H22         0.8350    1.6990   -2.4440 hc        1 MOL      0.117157
     59 H23         1.5380    1.1380   -1.0020 hc        1 MOL      0.117157
     60 H24         0.9450    0.7890   -4.3940 hn        1 MOL      0.395876
     61 H25         1.7690   -0.7980   -4.5850 hn        1 MOL      0.395876
     62 N7          2.1500    4.6200   -2.4800 n         1 MOL     -0.255677
     63 C20         2.0650    6.0810   -2.2590 c3        1 MOL     -0.319909
     64 C21         0.5970    6.6530   -2.1470 c         1 MOL      0.603667
     65 O12        -0.3130    6.1360   -2.8520 o         1 MOL     -0.510332
     66 H26         1.9720    4.3300   -3.4280 hn        1 MOL      0.249911
     67 H27         2.4420    6.5530   -3.1630 h1        1 MOL      0.152826
     68 H28         2.6350    6.3670   -1.3720 h1        1 MOL      0.152826
     69 N8          0.3420    7.5700   -1.1830 n         1 MOL     -0.547254
     70 C22        -1.0510    7.8450   -0.7770 c3        1 MOL     -0.212061
     71 C23        -1.8610    6.7840   -0.0450 c         1 MOL      0.471256
     72 O13        -2.9090    7.1430    0.5190 o         1 MOL     -0.545541
     73 C24        -0.9710    9.1050    0.0830 c3        1 MOL      0.501528
     74 C25        -0.3960    8.7780    1.5170 c3        1 MOL     -0.315602
     75 O14        -0.1520   10.0710   -0.5050 oh        1 MOL     -0.648892
     76 H29         1.1820    7.9720   -0.7770 hn        1 MOL      0.286182
     77 H30        -1.5380    8.0160   -1.7300 h1        1 MOL      0.161539
     78 H31        -1.9980    9.4690    0.1790 h1        1 MOL      0.020361
     79 H32         0.6850    9.6490   -0.6710 ho        1 MOL      0.396135
     80 H33        -1.0900    8.2680    2.1790 hc        1 MOL      0.071352
     81 H34         0.5140    8.1850    1.4270 hc        1 MOL      0.071352
     82 H35         0.0430    9.6690    1.9670 hc        1 MOL      0.071352
     83 N9         -1.4390    5.5080   -0.0610 n         1 MOL     -0.126012
     84 C26        -2.0410    4.3290    0.6000 c3        1 MOL     -0.105056
     85 C27        -2.0200    3.0780   -0.2080 c         1 MOL      0.588389
     86 O15        -1.4800    3.1090   -1.2810 o         1 MOL     -0.483237
     87 C28        -1.1220    4.0890    1.8650 c3        1 MOL      0.228142
     88 C29         0.3950    3.8530    1.5050 c3        1 MOL     -0.113701
     89 C30        -1.1780    5.2610    2.9250 c3        1 MOL     -0.322104
     90 C31         1.3180    3.6280    2.7070 c3        1 MOL     -0.427153
     91 H36        -0.7610    5.2320   -0.7550 hn        1 MOL      0.100834
     92 H37        -3.0410    4.4270    1.0200 h1        1 MOL      0.071618
     93 H38        -1.4900    3.1650    2.3160 hc        1 MOL     -0.045715
     94 H39         0.8080    4.6550    0.8890 hc        1 MOL      0.136234
     95 H40         0.2950    2.9200    0.9490 hc        1 MOL      0.136234
     96 H41        -2.1840    5.6720    2.9220 hc        1 MOL      0.074387
     97 H42        -0.9120    4.8160    3.8840 hc        1 MOL      0.074387
     98 H43        -0.4240    5.9710    2.5690 hc        1 MOL      0.074387
     99 H44         2.2240    3.1620    2.3170 hc        1 MOL      0.126649
    100 H45         1.5320    4.6210    3.1190 hc        1 MOL      0.126649
    101 H46         0.8390    2.9000    3.3540 hc        1 MOL      0.126649
    102 N10        -2.4860    1.8900    0.2930 n         1 MOL     -0.733280
    103 C32        -2.2210    0.6050   -0.3200 c3        1 MOL      0.302095
    104 C33        -3.5250   -0.2000   -0.5980 c         1 MOL      0.496657
    105 O16        -3.5790   -1.4230   -0.6750 o         1 MOL     -0.512966
    106 C34        -1.2020   -0.2080    0.4910 c3        1 MOL      0.000938
    107 C35        -0.4530   -1.2680   -0.3100 c         1 MOL      0.478050
    108 O17         0.4080   -1.9700    0.3410 o         1 MOL     -0.704382
    109 O18        -0.5920   -1.4210   -1.5680 o         1 MOL     -0.704382
    110 H47        -2.7760    1.8680    1.2540 hn        1 MOL      0.320235
    111 H48        -1.7720    0.7930   -1.2920 h1        1 MOL      0.005215
    112 H49        -1.6990   -0.6810    1.3320 hc        1 MOL      0.026287
    113 H50        -0.4730    0.5100    0.8670 hc        1 MOL      0.026287
    114 N11        -4.6630    0.5810   -0.6660 n         1 MOL     -0.510250
    115 C36        -6.0100    0.0140   -0.7290 c3        1 MOL      0.178931
    116 C37        -6.3100   -1.1120    0.2890 c         1 MOL      0.344800
    117 O19        -6.2100   -0.9670    1.4930 o         1 MOL     -0.475561
    118 C38        -7.0540    1.1400   -0.6410 c3        1 MOL     -0.377426
    119 C39        -8.5070    0.6980   -0.8650 ca        1 MOL      0.040740
    120 C40        -8.9210    0.1710   -2.1110 ca        1 MOL     -0.073462
    121 C41        -9.3690    0.5060    0.2210 ca        1 MOL     -0.073462
    122 C42       -10.2000   -0.3190   -2.3390 ca        1 MOL     -0.205905
    123 C43       -10.6960   -0.0430    0.0700 ca        1 MOL     -0.205905
    124 C44       -11.0270   -0.4430   -1.2220 ca        1 MOL     -0.029948
    125 H51        -4.6500    1.5870   -0.7480 hn        1 MOL      0.301014
    126 H52        -6.0560   -0.4180   -1.7300 h1        1 MOL      0.054725
    127 H53        -6.7550    1.8650   -1.4000 hc        1 MOL      0.141644
    128 H54        -7.0180    1.5720    0.3590 hc        1 MOL      0.141644
    129 H55        -8.2390    0.2740   -2.9400 ha        1 MOL      0.108380
    130 H56        -8.8930    0.7350    1.1610 ha        1 MOL      0.108380
    131 H57       -10.4590   -0.8040   -3.2620 ha        1 MOL      0.137393
    132 H58       -11.3740   -0.3410    0.8630 ha        1 MOL      0.137393
    133 H59       -11.9090   -1.0470   -1.3560 ha        1 MOL      0.081392
    134 N12        -6.7530   -2.2970   -0.2620 n         1 MOL     -0.072789
    135 C45        -7.1920   -3.4200    0.5940 c3        1 MOL      0.111549
    136 C46        -6.1230   -3.8000    1.6780 c         1 MOL      0.260451
    137 O20        -6.5250   -4.2560    2.7460 o         1 MOL     -0.503019
    138 C47        -7.4660   -4.6270   -0.3600 c3        1 MOL     -0.065578
    139 C48        -7.7940   -3.8790   -1.6690 c3        1 MOL     -0.014287
    140 C49        -6.8520   -2.6950   -1.6790 c3        1 MOL     -0.074209
    141 H60        -8.0810   -3.1200    1.1350 h1        1 MOL      0.057972
    142 H61        -6.5640   -5.1950   -0.5510 hc        1 MOL      0.039093
    143 H62        -8.3230   -5.1910    0.0120 hc        1 MOL      0.039093
    144 H63        -7.6150   -4.5560   -2.5040 hc        1 MOL      0.012290
    145 H64        -8.8610   -3.6590   -1.6860 hc        1 MOL      0.012290
    146 H65        -5.9540   -3.0980   -2.1220 h1        1 MOL      0.055206
    147 H66        -7.2780   -1.9440   -2.3460 h1        1 MOL      0.055206
    148 N13        -4.8190   -3.5970    1.4400 n         1 MOL     -0.157587
    149 C50        -3.7030   -3.7790    2.4130 c3        1 MOL     -0.204584
    150 C51        -3.4800   -2.6610    3.4540 c         1 MOL      0.471220
    151 O21        -2.9020   -2.9050    4.5500 o         1 MOL     -0.551878
    152 C52        -2.4590   -3.8200    1.5790 c3        1 MOL      0.057205
    153 C53        -2.3170   -5.0000    0.5960 c3        1 MOL     -0.106963
    154 C54        -0.9810   -4.9100   -0.1300 c         1 MOL      0.658495
    155 O22         0.1040   -5.2290    0.3610 o         1 MOL     -0.729700
    156 O23        -1.0000   -4.4980   -1.3380 o         1 MOL     -0.729700
    157 H67        -4.5550   -3.2530    0.5260 hn        1 MOL      0.254530
    158 H68        -3.8300   -4.7610    2.8800 h1        1 MOL      0.125744
    159 H69        -1.6060   -3.8790    2.2680 hc        1 MOL      0.072648
    160 H70        -2.4280   -2.8810    1.0350 hc        1 MOL      0.072648
    161 H71        -3.0910   -4.9660   -0.1740 hc        1 MOL     -0.001669
    162 H72        -2.3300   -5.9570    1.1060 hc        1 MOL     -0.001669
    163 N14        -3.8840   -1.4330    3.0970 n         1 MOL     -0.075578
    164 C55        -3.9610   -0.3210    4.1090 c3        1 MOL     -0.409381
    165 H73        -2.9740   -0.1500    4.5370 h1        1 MOL      0.144329
    166 H74        -4.3080    0.5900    3.6210 h1        1 MOL      0.144329
    167 H75        -4.6570   -0.5970    4.9010 h1        1 MOL      0.144329
    168 H76        -4.2420   -1.2980    2.1610 hn        1 MOL      0.177597
    169 Ca1         1.3090   -3.3810   -1.7070 Ca        1 MOL      1.812284
    170 O24        -0.1270   -3.6710   -4.0800 oh        1 MOL     -0.888055
    171 H77        -0.2640   -3.3880   -4.9870 ho        1 MOL      0.417901
    172 H78        -0.7790   -4.3610   -3.9550 ho        1 MOL      0.417901
    173 O25         2.5030   -5.7420   -1.6390 oh        1 MOL     -0.888055
    174 H79         1.9190   -6.4850   -1.7820 ho        1 MOL      0.417901
    175 H80         3.3130   -6.1380   -1.2980 ho        1 MOL      0.417901
    176 O26         3.1680   -3.8200   -3.9030 oh        1 MOL     -0.888055
    177 H81         3.2230   -4.1630   -4.7990 ho        1 MOL      0.417901
    178 H82         3.9850   -4.1100   -3.4900 ho        1 MOL      0.417901
@<TRIPOS>BOND
     1    1    2 1   
     2    1    4 1   
     3    1    5 1   
     4    1    6 1   
     5    2    3 2   
     6    2    7 1   
     7    7    8 1   
     8    7   15 1   
     9    8    9 1   
    10    8   11 1   
    11    8   16 1   
    12    9   10 2   
    13    9   19 1   
    14   11   12 1   
    15   11   17 1   
    16   11   18 1   
    17   12   13 1   
    18   12   14 1   
    19   19   20 1   
    20   19   24 1   
    21   20   21 1   
    22   20   23 1   
    23   20   25 1   
    24   21   22 2   
    25   21   29 1   
    26   23   26 1   
    27   23   27 1   
    28   23   28 1   
    29   29   30 1   
    30   29   37 1   
    31   30   31 1   
    32   30   33 1   
    33   30   38 1   
    34   31   32 2   
    35   31   41 1   
    36   33   34 1   
    37   33   39 1   
    38   33   40 1   
    39   34   35 1   
    40   34   36 1   
    41   41   42 1   
    42   41   45 1   
    43   42   43 1   
    44   42   46 1   
    45   42   47 1   
    46   43   44 2   
    47   43   48 1   
    48   48   49 1   
    49   48   56 1   
    50   49   50 1   
    51   49   52 1   
    52   49   57 1   
    53   50   51 2   
    54   50   62 1   
    55   52   53 1   
    56   52   58 1   
    57   52   59 1   
    58   53   54 1   
    59   53   55 2   
    60   54   60 1   
    61   54   61 1   
    62   62   63 1   
    63   62   66 1   
    64   63   64 1   
    65   63   67 1   
    66   63   68 1   
    67   64   65 2   
    68   64   69 1   
    69   69   70 1   
    70   69   76 1   
    71   70   71 1   
    72   70   73 1   
    73   70   77 1   
    74   71   72 2   
    75   71   83 1   
    76   73   74 1   
    77   73   75 1   
    78   73   78 1   
    79   74   80 1   
    80   74   81 1   
    81   74   82 1   
    82   75   79 1   
    83   83   84 1   
    84   83   91 1   
    85   84   85 1   
    86   84   87 1   
    87   84   92 1   
    88   85   86 2   
    89   85  102 1   
    90   87   88 1   
    91   87   89 1   
    92   87   93 1   
    93   88   90 1   
    94   88   94 1   
    95   88   95 1   
    96   89   96 1   
    97   89   97 1   
    98   89   98 1   
    99   90   99 1   
   100   90  100 1   
   101   90  101 1   
   102  102  103 1   
   103  102  110 1   
   104  103  104 1   
   105  103  106 1   
   106  103  111 1   
   107  104  105 2   
   108  104  114 1   
   109  106  107 1   
   110  106  112 1   
   111  106  113 1   
   112  107  108 1   
   113  107  109 1   
   114  114  115 1   
   115  114  125 1   
   116  115  116 1   
   117  115  118 1   
   118  115  126 1   
   119  116  117 2   
   120  116  134 1   
   121  118  119 1   
   122  118  127 1   
   123  118  128 1   
   124  119  120 ar  
   125  119  121 ar  
   126  120  122 ar  
   127  120  129 1   
   128  121  123 ar  
   129  121  130 1   
   130  122  124 ar  
   131  122  131 1   
   132  123  124 ar  
   133  123  132 1   
   134  124  133 1   
   135  134  135 1   
   136  134  140 1   
   137  135  136 1   
   138  135  138 1   
   139  135  141 1   
   140  136  137 2   
   141  136  148 1   
   142  138  139 1   
   143  138  142 1   
   144  138  143 1   
   145  139  140 1   
   146  139  144 1   
   147  139  145 1   
   148  140  146 1   
   149  140  147 1   
   150  148  149 1   
   151  148  157 1   
   152  149  150 1   
   153  149  152 1   
   154  149  158 1   
   155  150  151 2   
   156  150  163 1   
   157  152  153 1   
   158  152  159 1   
   159  152  160 1   
   160  153  154 1   
   161  153  161 1   
   162  153  162 1   
   163  154  155 1   
   164  154  156 1   
   165  163  164 1   
   166  163  168 1   
   167  164  165 1   
   168  164  166 1   
   169  164  167 1   
   170  170  171 1   
   171  170  172 1   
   172  173  174 1   
   173  173  175 1   
   174  176  177 1   
   175  176  178 1   
@<TRIPOS>SUBSTRUCTURE
     1 MOL         1 TEMP              0 ****  ****    0 ROOT
