@<TRIPOS>MOLECULE
MOL
  192   187     1     0     0
SMALL
resp


@<TRIPOS>ATOM
      1 C1        -11.6790   -5.7710   -2.8510 c3        1 MOL     -0.386821
      2 C2        -11.5940   -4.4850   -1.9490 c         1 MOL      0.641642
      3 O1        -12.5410   -3.6950   -1.9640 o         1 MOL     -0.570075
      4 H1        -12.3750   -6.4810   -2.4060 hc        1 MOL      0.102793
      5 H2        -12.0280   -5.4950   -3.8460 hc        1 MOL      0.102793
      6 H3        -10.6930   -6.2290   -2.9260 hc        1 MOL      0.102793
      7 N1        -10.4510   -4.3100   -1.2680 n         1 MOL     -0.219487
      8 C3        -10.2080   -3.3600   -0.2320 c3        1 MOL     -0.436859
      9 C4         -8.9430   -2.4540   -0.4560 c         1 MOL      0.672238
     10 O2         -7.8810   -3.0470   -0.6760 o         1 MOL     -0.608438
     11 C5        -10.2930   -3.9630    1.1500 c3        1 MOL      0.230042
     12 C6         -9.4880   -5.2400    1.3010 c         1 MOL      0.577505
     13 O3         -8.5410   -5.4610    0.4800 o         1 MOL     -0.689633
     14 O4         -9.6920   -6.0160    2.2670 o         1 MOL     -0.689633
     15 H4         -9.7030   -4.9420   -1.4960 hn        1 MOL      0.130901
     16 H5        -11.0700   -2.6960   -0.2660 h1        1 MOL      0.105344
     17 H6        -11.3400   -4.1390    1.3930 hc        1 MOL      0.008355
     18 H7         -9.9600   -3.1880    1.8360 hc        1 MOL      0.008355
     19 N2         -9.1250   -1.1140   -0.4180 n         1 MOL     -0.438874
     20 C7         -8.1140   -0.0850   -0.6370 c3        1 MOL     -0.031638
     21 C8         -7.2360    0.1700    0.5950 c         1 MOL      0.806633
     22 O5         -7.8150    0.5240    1.5800 o         1 MOL     -0.576439
     23 C9         -8.8860    1.1610   -1.0850 c3        1 MOL     -0.174029
     24 C10        -7.9190    2.2770   -1.5510 c3        1 MOL      0.044488
     25 C11        -8.7040    3.4600   -2.1530 c3        1 MOL     -0.042669
     26 C12        -7.9180    4.7660   -2.6420 c3        1 MOL     -0.032936
     27 N3         -8.8920    5.8420   -3.0090 n4        1 MOL     -0.244567
     28 H8        -10.0010   -0.7370   -0.0660 hn        1 MOL      0.318089
     29 H9         -7.5290   -0.3910   -1.5050 h1        1 MOL      0.083750
     30 H10        -9.4890    1.4580   -0.2200 hc        1 MOL      0.065938
     31 H11        -9.5810    0.9380   -1.8880 hc        1 MOL      0.065938
     32 H12        -7.3160    1.8280   -2.3430 hc        1 MOL      0.003295
     33 H13        -7.2530    2.5510   -0.7390 hc        1 MOL      0.003295
     34 H14        -9.5450    3.7550   -1.5340 hc        1 MOL      0.042290
     35 H15        -9.2380    2.9740   -2.9740 hc        1 MOL      0.042290
     36 H16        -7.2740    4.4640   -3.4690 hx        1 MOL      0.107326
     37 H17        -7.2940    5.2370   -1.8820 hx        1 MOL      0.107326
     38 H18        -8.4550    6.7550   -2.9590 hn        1 MOL      0.261695
     39 H19        -9.1350    5.6630   -3.9780 hn        1 MOL      0.261695
     40 H20        -9.7520    5.7700   -2.4890 hn        1 MOL      0.261695
     41 N4         -5.9780   -0.2540    0.5970 n         1 MOL     -0.559618
     42 C13        -4.9430   -0.1340    1.6010 c3        1 MOL      0.352420
     43 C14        -3.5170   -0.0270    1.0120 c         1 MOL      0.280390
     44 O6         -3.2650   -0.3900   -0.1650 o         1 MOL     -0.551131
     45 C15        -5.0840   -1.2400    2.7030 c3        1 MOL     -0.126106
     46 C16        -5.5030   -2.5790    1.9830 c         1 MOL      0.532962
     47 O7         -6.5700   -3.1560    2.2710 o         1 MOL     -0.634892
     48 O8         -4.7970   -3.1010    1.0530 o         1 MOL     -0.634892
     49 H21        -5.7040   -0.7400   -0.2500 hn        1 MOL      0.157463
     50 H22        -5.0180    0.8700    2.0220 h1        1 MOL      0.005972
     51 H23        -5.8050   -0.8450    3.4270 hc        1 MOL      0.037613
     52 H24        -4.0710   -1.2450    3.0960 hc        1 MOL      0.037613
     53 N5         -2.4830    0.5690    1.6560 n         1 MOL     -0.176700
     54 C17        -2.6460    1.2340    2.9380 c3        1 MOL     -0.241000
     55 C18        -2.8910    2.7670    2.7680 c         1 MOL      0.657872
     56 O9         -3.3360    3.1830    1.7440 o         1 MOL     -0.543247
     57 H25        -1.6280    0.6880    1.1490 hn        1 MOL      0.229796
     58 H26        -1.6630    1.0630    3.3610 h1        1 MOL      0.099511
     59 H27        -3.4500    0.7990    3.5420 h1        1 MOL      0.099511
     60 N6         -2.4810    3.5530    3.7740 n         1 MOL     -0.470909
     61 C19        -2.3980    5.0220    3.7080 c3        1 MOL     -0.013195
     62 C20        -1.5160    5.4280    2.5360 c         1 MOL      0.647214
     63 O10        -0.3180    5.1050    2.5040 o         1 MOL     -0.542896
     64 C21        -1.6850    5.4970    5.0300 c3        1 MOL     -0.127314
     65 C22        -1.7060    7.0100    5.0650 c         1 MOL      0.657883
     66 O11        -0.7470    7.5770    5.5850 o         1 MOL     -0.647390
     67 O12        -2.6030    7.6060    4.4960 o         1 MOL     -0.647390
     68 H28        -2.0160    3.1640    4.5780 hn        1 MOL      0.269312
     69 H29        -3.4180    5.4140    3.6480 h1        1 MOL      0.034633
     70 H30        -0.6750    5.0890    5.0660 hc        1 MOL      0.046794
     71 H31        -2.1820    5.0260    5.8700 hc        1 MOL      0.046794
     72 N7         -2.0320    6.3010    1.6930 n         1 MOL     -0.308114
     73 C23        -1.2870    6.7860    0.5790 c3        1 MOL     -0.116081
     74 C24        -0.9200    5.7920   -0.5890 c         1 MOL      0.385542
     75 O13        -0.3180    6.2380   -1.5820 o         1 MOL     -0.552022
     76 H32        -2.8350    6.8390    1.9890 hn        1 MOL      0.236990
     77 H33        -0.4060    7.2900    0.9750 h1        1 MOL      0.114590
     78 H34        -1.8900    7.5370    0.0790 h1        1 MOL      0.114590
     79 N8         -1.1640    4.4680   -0.4700 n         1 MOL     -0.061612
     80 C25        -1.1750    3.5440   -1.5150 c3        1 MOL      0.319995
     81 C26        -0.5500    2.2150   -1.0340 c         1 MOL      0.032080
     82 O14        -0.5780    2.0160    0.2310 o         1 MOL     -0.293630
     83 C27        -2.6200    3.3410   -2.0140 c3        1 MOL      0.392084
     84 C28        -3.5640    4.5100   -2.3240 c3        1 MOL     -0.365184
     85 O15        -2.5840    2.5480   -3.1860 oh        1 MOL     -0.639474
     86 H35        -1.5500    4.1230    0.3940 hn        1 MOL     -0.094275
     87 H36        -0.6080    3.9380   -2.3710 h1        1 MOL      0.000124
     88 H37        -3.1340    2.7810   -1.2410 h1        1 MOL      0.013319
     89 H38        -3.2600    1.8740   -3.1130 ho        1 MOL      0.383706
     90 H39        -3.0060    5.1790   -2.9780 hc        1 MOL      0.070861
     91 H40        -4.5140    4.2430   -2.7980 hc        1 MOL      0.070861
     92 H41        -3.7420    5.0410   -1.3840 hc        1 MOL      0.070861
     93 N9         -0.0970    1.4270   -1.9890 n         1 MOL     -0.069520
     94 C29         0.4790    0.1000   -1.8360 c3        1 MOL     -0.259729
     95 C30         1.8720    0.1550   -1.1970 c         1 MOL      0.479638
     96 O16         2.2270   -0.7260   -0.4530 o         1 MOL     -0.482691
     97 C31         0.4660   -0.7110   -3.1700 c3        1 MOL      0.135554
     98 C32        -0.8460   -0.6430   -3.9650 c3        1 MOL     -0.016873
     99 C33         0.9850   -2.1870   -3.0730 c3        1 MOL     -0.095416
    100 C34        -2.0520   -1.3760   -3.3230 c3        1 MOL     -0.017232
    101 H42        -0.1790    1.8390   -2.9080 hn        1 MOL      0.208133
    102 H43        -0.1640   -0.5110   -1.2060 h1        1 MOL      0.173680
    103 H44         1.2460   -0.2840   -3.8000 hc        1 MOL     -0.009251
    104 H45        -0.7090   -0.8220   -5.0270 hc        1 MOL     -0.001849
    105 H46        -1.1510    0.3970   -3.9320 hc        1 MOL     -0.001849
    106 H47         0.7520   -2.7080   -2.1400 hc        1 MOL      0.033056
    107 H48         0.7160   -2.7420   -3.9760 hc        1 MOL      0.033056
    108 H49         2.0660   -2.1680   -3.2290 hc        1 MOL      0.033056
    109 H50        -1.8830   -2.4490   -3.2840 hc        1 MOL     -0.004640
    110 H51        -2.2970   -0.9490   -2.3480 hc        1 MOL     -0.004640
    111 H52        -2.8460   -1.1430   -4.0310 hc        1 MOL     -0.004640
    112 N10         2.6900    1.1280   -1.5720 n         1 MOL     -0.327620
    113 C35         4.0100    1.3370   -0.9340 c3        1 MOL     -0.011864
    114 C36         5.1090    2.0290   -1.7930 c         1 MOL      0.510089
    115 O17         4.7540    2.8260   -2.6460 o         1 MOL     -0.532356
    116 C37         3.8480    2.1280    0.3990 c3        1 MOL      0.332075
    117 C38         3.2150    3.4350    0.1260 c3        1 MOL     -0.309141
    118 O18         3.0140    1.5350    1.3930 oh        1 MOL     -0.602097
    119 H53         2.3710    1.7940   -2.2520 hn        1 MOL      0.244326
    120 H54         4.4850    0.3860   -0.6860 h1        1 MOL      0.071442
    121 H55         4.7980    2.3780    0.8590 h1        1 MOL     -0.006072
    122 H56         2.7180    2.1730    2.0560 ho        1 MOL      0.403052
    123 H57         3.6290    4.0250   -0.6890 hc        1 MOL      0.085319
    124 H58         2.1920    3.2720   -0.2190 hc        1 MOL      0.085319
    125 H59         3.3020    4.1050    0.9840 hc        1 MOL      0.085319
    126 N11         6.3550    1.7110   -1.5690 n         1 MOL     -0.349161
    127 C39         7.5630    2.0990   -2.3630 c3        1 MOL     -0.081519
    128 C40         8.5990    0.9800   -2.4020 c         1 MOL      0.513185
    129 O19         8.9530    0.2800   -3.3920 o         1 MOL     -0.570426
    130 C41         8.0900    3.4690   -1.7360 c3        1 MOL      0.209225
    131 C42         9.3730    3.9900   -2.4120 c3        1 MOL     -0.288702
    132 O20         8.3950    3.2060   -0.3940 oh        1 MOL     -0.620991
    133 H60         6.4670    1.0560   -0.8180 hn        1 MOL      0.242935
    134 H61         7.1820    2.1870   -3.3820 h1        1 MOL      0.128301
    135 H62         7.2780    4.1870   -1.8170 h1        1 MOL      0.079595
    136 H63         8.8180    3.9780   -0.0220 ho        1 MOL      0.435143
    137 H64         9.6560    4.9510   -1.9820 hc        1 MOL      0.080271
    138 H65        10.2250    3.3240   -2.2720 hc        1 MOL      0.080271
    139 H66         9.2000    4.1200   -3.4740 hc        1 MOL      0.080271
    140 N12         9.1440    0.6710   -1.2480 n         1 MOL     -0.342253
    141 C43        10.0670   -0.4320   -0.9570 c3        1 MOL      0.256346
    142 C44         9.5230   -1.1350    0.2710 c         1 MOL      0.494909
    143 O21         9.0140   -0.5140    1.2210 o         1 MOL     -0.499830
    144 C45        11.5340    0.0720   -0.6920 c3        1 MOL     -0.490734
    145 C46        12.5100   -1.1130   -1.0470 c3        1 MOL      0.188329
    146 C47        13.9750   -0.5570   -0.9630 c3        1 MOL     -0.106308
    147 C48        14.8670   -1.7010   -1.4080 c3        1 MOL      0.141614
    148 N13        16.2960   -1.3050   -1.2880 n4        1 MOL     -0.307240
    149 H67         8.8450    1.3140   -0.5290 hn        1 MOL      0.234672
    150 H68        10.1600   -1.1470   -1.7770 h1        1 MOL      0.042515
    151 H69        11.5540    0.3960    0.3460 hc        1 MOL      0.157437
    152 H70        11.7850    0.7970   -1.4750 hc        1 MOL      0.157437
    153 H71        12.3020   -1.3920   -2.0810 hc        1 MOL      0.000762
    154 H72        12.3120   -2.0960   -0.6070 hc        1 MOL      0.000762
    155 H73        14.2110   -0.2570    0.0560 hc        1 MOL      0.044622
    156 H74        14.1360    0.3020   -1.6130 hc        1 MOL      0.044622
    157 H75        14.6230   -1.9350   -2.4490 hx        1 MOL      0.042818
    158 H76        14.5580   -2.5760   -0.8390 hx        1 MOL      0.042818
    159 H77        16.8960   -2.1160   -1.3880 hn        1 MOL      0.263857
    160 H78        16.4730   -0.6660   -2.0440 hn        1 MOL      0.263857
    161 H79        16.5790   -0.8900   -0.4110 hn        1 MOL      0.263857
    162 N14         9.5790   -2.4850    0.3080 n         1 MOL     -0.642039
    163 C49         9.2580   -3.3210    1.4380 c3        1 MOL      0.545337
    164 C50         7.8010   -3.4490    1.6240 c         1 MOL      0.377382
    165 O22         7.3520   -3.2120    2.7440 o         1 MOL     -0.531126
    166 C51         9.9900   -4.6910    1.4650 c3        1 MOL     -0.601330
    167 C52         9.8930   -5.2820    2.8730 c3        1 MOL     -0.056966
    168 C53        11.0370   -6.1760    3.1100 c         1 MOL      0.661537
    169 O23        11.9050   -5.9760    4.0370 o         1 MOL     -0.658757
    170 O24        10.9380   -7.2280    2.4290 o         1 MOL     -0.658757
    171 H80        10.1870   -2.8970   -0.3890 hn        1 MOL      0.263320
    172 H81         9.6620   -2.7270    2.2610 h1        1 MOL      0.011972
    173 H82        11.0400   -4.6950    1.1790 hc        1 MOL      0.176114
    174 H83         9.4310   -5.3710    0.8330 hc        1 MOL      0.176114
    175 H84         8.8900   -5.6700    3.0230 hc        1 MOL      0.043586
    176 H85         9.8260   -4.4440    3.5770 hc        1 MOL      0.043586
    177 N15         6.9600   -3.7550    0.6300 n         1 MOL     -0.365998
    178 C54         7.1860   -4.4780   -0.6900 c3        1 MOL      0.036596
    179 H86         7.4680   -3.7550   -1.4560 h1        1 MOL      0.031446
    180 H87         7.9840   -5.2110   -0.5710 h1        1 MOL      0.031446
    181 H88         6.2680   -4.9850   -0.9890 h1        1 MOL      0.031446
    182 H89         5.9740   -3.7810    0.8500 hn        1 MOL      0.293286
    183 Ca1        -6.0830   -4.8590   -0.1670 Ca        1 MOL      1.748798
    184 O25        -3.7610   -6.1850    0.0340 oh        1 MOL     -0.863164
    185 H90        -3.8440   -7.1400    0.0210 ho        1 MOL      0.429151
    186 H91        -3.0310   -6.0120    0.6420 ho        1 MOL      0.429151
    187 O26        -4.8980   -3.2590   -2.0530 oh        1 MOL     -0.863164
    188 H92        -5.2820   -2.5440   -2.5580 ho        1 MOL      0.429151
    189 H93        -3.9700   -3.0420   -2.0100 ho        1 MOL      0.429151
    190 O27        -5.2390   -5.7580    2.3910 oh        1 MOL     -0.863164
    191 H94        -4.6850   -5.3280    3.0430 ho        1 MOL      0.429151
    192 H95        -5.9480   -6.1430    2.9060 ho        1 MOL      0.429151
@<TRIPOS>BOND
     1    1    2 1   
     2    1    4 1   
     3    1    5 1   
     4    1    6 1   
     5    2    3 2   
     6    2    7 1   
     7    7    8 1   
     8    7   15 1   
     9    8    9 1   
    10    8   11 1   
    11    8   16 1   
    12    9   10 2   
    13    9   19 1   
    14   11   12 1   
    15   11   17 1   
    16   11   18 1   
    17   12   13 1   
    18   12   14 1   
    19   19   20 1   
    20   19   28 1   
    21   20   21 1   
    22   20   23 1   
    23   20   29 1   
    24   21   22 2   
    25   21   41 1   
    26   23   24 1   
    27   23   30 1   
    28   23   31 1   
    29   24   25 1   
    30   24   32 1   
    31   24   33 1   
    32   25   26 1   
    33   25   34 1   
    34   25   35 1   
    35   26   27 1   
    36   26   36 1   
    37   26   37 1   
    38   27   38 1   
    39   27   39 1   
    40   27   40 1   
    41   41   42 1   
    42   41   49 1   
    43   42   43 1   
    44   42   45 1   
    45   42   50 1   
    46   43   44 2   
    47   43   53 1   
    48   45   46 1   
    49   45   51 1   
    50   45   52 1   
    51   46   47 1   
    52   46   48 1   
    53   53   54 1   
    54   53   57 1   
    55   54   55 1   
    56   54   58 1   
    57   54   59 1   
    58   55   56 2   
    59   55   60 1   
    60   60   61 1   
    61   60   68 1   
    62   61   62 1   
    63   61   64 1   
    64   61   69 1   
    65   62   63 2   
    66   62   72 1   
    67   64   65 1   
    68   64   70 1   
    69   64   71 1   
    70   65   66 1   
    71   65   67 1   
    72   72   73 1   
    73   72   76 1   
    74   73   74 1   
    75   73   77 1   
    76   73   78 1   
    77   74   75 2   
    78   74   79 1   
    79   79   80 1   
    80   79   86 1   
    81   80   81 1   
    82   80   83 1   
    83   80   87 1   
    84   81   82 2   
    85   81   93 1   
    86   83   84 1   
    87   83   85 1   
    88   83   88 1   
    89   84   90 1   
    90   84   91 1   
    91   84   92 1   
    92   85   89 1   
    93   93   94 1   
    94   93  101 1   
    95   94   95 1   
    96   94   97 1   
    97   94  102 1   
    98   95   96 2   
    99   95  112 1   
   100   97   98 1   
   101   97   99 1   
   102   97  103 1   
   103   98  100 1   
   104   98  104 1   
   105   98  105 1   
   106   99  106 1   
   107   99  107 1   
   108   99  108 1   
   109  100  109 1   
   110  100  110 1   
   111  100  111 1   
   112  112  113 1   
   113  112  119 1   
   114  113  114 1   
   115  113  116 1   
   116  113  120 1   
   117  114  115 2   
   118  114  126 1   
   119  116  117 1   
   120  116  118 1   
   121  116  121 1   
   122  117  123 1   
   123  117  124 1   
   124  117  125 1   
   125  118  122 1   
   126  126  127 1   
   127  126  133 1   
   128  127  128 1   
   129  127  130 1   
   130  127  134 1   
   131  128  129 2   
   132  128  140 1   
   133  130  131 1   
   134  130  132 1   
   135  130  135 1   
   136  131  137 1   
   137  131  138 1   
   138  131  139 1   
   139  132  136 1   
   140  140  141 1   
   141  140  149 1   
   142  141  142 1   
   143  141  144 1   
   144  141  150 1   
   145  142  143 2   
   146  142  162 1   
   147  144  145 1   
   148  144  151 1   
   149  144  152 1   
   150  145  146 1   
   151  145  153 1   
   152  145  154 1   
   153  146  147 1   
   154  146  155 1   
   155  146  156 1   
   156  147  148 1   
   157  147  157 1   
   158  147  158 1   
   159  148  159 1   
   160  148  160 1   
   161  148  161 1   
   162  162  163 1   
   163  162  171 1   
   164  163  164 1   
   165  163  166 1   
   166  163  172 1   
   167  164  165 2   
   168  164  177 1   
   169  166  167 1   
   170  166  173 1   
   171  166  174 1   
   172  167  168 1   
   173  167  175 1   
   174  167  176 1   
   175  168  169 1   
   176  168  170 1   
   177  177  178 1   
   178  177  182 1   
   179  178  179 1   
   180  178  180 1   
   181  178  181 1   
   182  184  185 1   
   183  184  186 1   
   184  187  188 1   
   185  187  189 1   
   186  190  191 1   
   187  190  192 1   
@<TRIPOS>SUBSTRUCTURE
     1 MOL         1 TEMP              0 ****  ****    0 ROOT
