@<TRIPOS>MOLECULE
MOL
  188   182     1     0     0
SMALL
resp


@<TRIPOS>ATOM
      1 C1          5.7830    0.2690    5.8160 c3        1 MOL     -0.365150
      2 C2          4.7970    0.3910    4.6770 c         1 MOL      0.639002
      3 O1          3.6640    0.7960    4.8590 o         1 MOL     -0.571674
      4 H1          5.2410    0.1260    6.7510 hc        1 MOL      0.092574
      5 H2          6.4370   -0.5850    5.6400 hc        1 MOL      0.092574
      6 H3          6.3820    1.1790    5.8780 hc        1 MOL      0.092574
      7 N1          5.1770    0.1000    3.4480 n         1 MOL     -0.442054
      8 C3          4.2370   -0.0470    2.2940 c3        1 MOL      0.040687
      9 C4          3.9570   -1.5120    1.7860 c         1 MOL      0.434472
     10 O2          3.0890   -1.7290    0.9560 o         1 MOL     -0.587455
     11 C5          4.7750    0.7620    1.1260 c3        1 MOL     -0.262292
     12 C6          6.2620    0.4570    0.7220 c         1 MOL      0.515455
     13 O3          6.9370    1.4920    0.4560 o         1 MOL     -0.599863
     14 O4          6.5850   -0.7320    0.6170 o         1 MOL     -0.599863
     15 H4          6.1590   -0.1200    3.3140 hn        1 MOL      0.323710
     16 H5          3.2400    0.3060    2.5600 h1        1 MOL      0.101502
     17 H6          4.7350    1.8270    1.3800 hc        1 MOL      0.090771
     18 H7          4.1390    0.6040    0.2560 hc        1 MOL      0.090771
     19 N2          4.7690   -2.4170    2.2600 n         1 MOL     -0.243171
     20 C7          4.7390   -3.8380    1.9130 c3        1 MOL      0.005178
     21 C8          5.3530   -4.0330    0.4770 c         1 MOL      0.579145
     22 O5          6.3500   -4.7540    0.3240 o         1 MOL     -0.550672
     23 C9          5.5620   -4.5570    3.0640 c3        1 MOL      0.103424
     24 C10         5.4180   -6.1100    3.2880 c3        1 MOL     -0.318992
     25 C11         6.4540   -6.5640    4.2820 c3        1 MOL      0.071878
     26 C12         6.2180   -8.0090    4.5920 c3        1 MOL      0.142190
     27 N3          7.0980   -8.3460    5.7010 n4        1 MOL     -0.548477
     28 H8          5.4080   -2.0530    2.9540 hn        1 MOL      0.163229
     29 H9          3.7140   -4.2010    1.9850 h1        1 MOL      0.067092
     30 H10         5.1430   -4.1150    3.9690 hc        1 MOL     -0.010279
     31 H11         6.6070   -4.2620    3.0190 hc        1 MOL     -0.010279
     32 H12         5.6440   -6.5030    2.2990 hc        1 MOL      0.097459
     33 H13         4.3910   -6.2690    3.5960 hc        1 MOL      0.097459
     34 H14         6.4240   -6.0530    5.2510 hc        1 MOL      0.035550
     35 H15         7.4340   -6.4310    3.8390 hc        1 MOL      0.035550
     36 H16         6.4190   -8.5810    3.6870 hx        1 MOL      0.071577
     37 H17         5.1810   -8.2800    4.7840 hx        1 MOL      0.071577
     38 H18         6.9000   -7.8360    6.5490 hn        1 MOL      0.368241
     39 H19         6.8870   -9.3010    5.9600 hn        1 MOL      0.368241
     40 H20         8.0640   -8.2800    5.4220 hn        1 MOL      0.368241
     41 N4          4.8690   -3.3870   -0.5840 n         1 MOL     -0.532366
     42 C13         5.1980   -3.5850   -2.0440 c3        1 MOL      0.208033
     43 C14         5.5530   -2.2660   -2.8550 c         1 MOL      0.294910
     44 O6          5.3710   -2.2910   -4.0690 o         1 MOL     -0.527596
     45 C15         3.9800   -4.2950   -2.7420 c3        1 MOL     -0.200284
     46 C16         2.6370   -3.6860   -2.4520 c         1 MOL      0.866589
     47 O7          2.4620   -2.4540   -2.5230 o         1 MOL     -0.785084
     48 O8          1.6470   -4.3730   -2.1280 o         1 MOL     -0.785084
     49 H21         4.2890   -2.6060   -0.3250 hn        1 MOL      0.318925
     50 H22         6.0660   -4.2500   -2.0980 h1        1 MOL      0.063946
     51 H23         3.9360   -5.2880   -2.2900 hc        1 MOL      0.040238
     52 H24         4.0400   -4.4460   -3.8160 hc        1 MOL      0.040238
     53 N5          5.8080   -1.1500   -2.2330 n         1 MOL     -0.113896
     54 C17         5.7520    0.2080   -2.7350 c3        1 MOL      0.061144
     55 C18         7.1500    0.8990   -2.7570 c         1 MOL      0.490808
     56 O9          8.1640    0.2210   -2.8410 o         1 MOL     -0.541323
     57 H25         6.0510   -1.2480   -1.2500 hn        1 MOL      0.181692
     58 H26         5.0470    0.7910   -2.1540 h1        1 MOL      0.039224
     59 H27         5.4010    0.2000   -3.7640 h1        1 MOL      0.039224
     60 N6          7.2470    2.2250   -2.7640 n         1 MOL     -0.514822
     61 C19         6.2650    3.3100   -2.8960 c3        1 MOL      0.334666
     62 C20         6.1390    4.0260   -1.5380 c         1 MOL      0.540267
     63 O10         7.0790    4.6960   -1.1620 o         1 MOL     -0.535430
     64 C21         6.8670    4.2350   -3.9330 c3        1 MOL     -0.283898
     65 C22         6.0680    5.4940   -4.2560 c         1 MOL      0.689957
     66 N7          6.2390    6.2590   -5.3140 n         1 MOL     -0.809877
     67 O11         5.1190    5.7510   -3.4750 o         1 MOL     -0.563709
     68 H28         8.2220    2.4500   -2.6570 hn        1 MOL      0.321343
     69 H29         5.2420    3.0300   -3.1590 h1        1 MOL     -0.030686
     70 H30         6.9790    3.6490   -4.8300 hc        1 MOL      0.063610
     71 H31         7.8800    4.4770   -3.5920 hc        1 MOL      0.063610
     72 H32         7.0520    6.1320   -5.8890 hn        1 MOL      0.372647
     73 H33         5.6010    7.0390   -5.4540 hn        1 MOL      0.372647
     74 N8          4.9740    3.8810   -0.8050 n         1 MOL     -0.409476
     75 C23         3.5130    3.6000   -1.1510 c3        1 MOL     -0.047605
     76 C24         2.5500    4.1500   -0.1880 c         1 MOL      0.635843
     77 O12         2.9190    4.9950    0.6250 o         1 MOL     -0.503473
     78 H34         5.0970    4.2880    0.1220 hn        1 MOL      0.254279
     79 H35         3.4450    2.5150   -1.1620 h1        1 MOL      0.050689
     80 H36         3.2920    4.1000   -2.0970 h1        1 MOL      0.050689
     81 N9          1.2770    3.6820   -0.2760 n         1 MOL     -0.518284
     82 C25         0.1770    4.2330    0.5600 c3        1 MOL      0.065944
     83 C26        -1.0390    3.2510    0.6730 c         1 MOL      0.694805
     84 O13        -1.0790    2.2320   -0.0520 o         1 MOL     -0.583251
     85 C27        -0.2760    5.6440    0.0640 c3        1 MOL     -0.235116
     86 C28        -1.0300    6.5040    1.0360 ca        1 MOL      0.049683
     87 C29        -2.4060    6.7100    0.8720 ca        1 MOL     -0.158384
     88 C30        -0.4650    6.7270    2.3110 ca        1 MOL     -0.158384
     89 C31        -3.2300    7.1890    1.9420 ca        1 MOL     -0.239826
     90 C32        -1.2610    7.1770    3.3870 ca        1 MOL     -0.239826
     91 C33        -2.6260    7.4230    3.2030 ca        1 MOL      0.336466
     92 O14        -3.3330    7.9350    4.1990 oh        1 MOL     -0.516601
     93 H37         1.0920    2.9380   -0.9370 hn        1 MOL      0.258638
     94 H38         0.6650    4.2660    1.5270 h1        1 MOL      0.068499
     95 H39        -0.7930    5.5000   -0.8800 hc        1 MOL      0.101894
     96 H40         0.6830    6.1540   -0.0330 hc        1 MOL      0.101894
     97 H41        -2.8190    6.6300   -0.1270 ha        1 MOL      0.145073
     98 H42         0.6080    6.6570    2.4660 ha        1 MOL      0.145073
     99 H43        -4.2870    7.2580    1.7170 ha        1 MOL      0.137478
    100 H44        -0.7500    7.4400    4.3060 ha        1 MOL      0.137478
    101 H45        -2.8780    8.0840    5.0400 ho        1 MOL      0.391800
    102 N10        -1.9400    3.4830    1.6250 n         1 MOL     -0.426127
    103 C34        -3.1230    2.6880    1.9550 c3        1 MOL     -0.460038
    104 C35        -4.1920    3.1400    0.9450 c         1 MOL      0.751800
    105 O15        -4.2430    4.2460    0.3820 o         1 MOL     -0.509340
    106 C36        -3.5270    2.8540    3.4630 c3        1 MOL      0.405492
    107 C37        -2.6450    1.9410    4.3180 c3        1 MOL     -0.149955
    108 C38        -3.4610    4.2910    4.0220 c3        1 MOL     -0.231905
    109 C39        -3.1910    1.6180    5.7250 c3        1 MOL     -0.158172
    110 H46        -1.8980    4.3190    2.1930 hn        1 MOL      0.210647
    111 H47        -2.7990    1.6490    1.8780 h1        1 MOL      0.181342
    112 H48        -4.5750    2.5600    3.5220 hc        1 MOL     -0.044282
    113 H49        -1.6620    2.3870    4.4680 hc        1 MOL      0.066516
    114 H50        -2.4880    0.9950    3.8210 hc        1 MOL      0.066516
    115 H51        -2.4260    4.6150    3.9460 hc        1 MOL      0.069052
    116 H52        -4.1620    4.8680    3.4260 hc        1 MOL      0.069052
    117 H53        -3.7240    4.3240    5.0860 hc        1 MOL      0.069052
    118 H54        -4.0170    0.9180    5.6090 hc        1 MOL      0.043156
    119 H55        -2.4160    1.2860    6.4160 hc        1 MOL      0.043156
    120 H56        -3.5770    2.4940    6.2480 hc        1 MOL      0.043156
    121 N11        -5.1530    2.2630    0.7910 n         1 MOL     -0.473939
    122 C40        -6.2330    2.4070   -0.0800 c3        1 MOL     -0.046160
    123 C41        -6.5420    1.1250   -0.8730 c         1 MOL      0.787954
    124 O16        -6.1560    0.0010   -0.3960 o         1 MOL     -0.597640
    125 C42        -7.5390    2.9660    0.6120 c3        1 MOL      0.026424
    126 O17        -7.8100    2.3510    1.8410 oh        1 MOL     -0.575088
    127 H57        -5.1520    1.5070    1.4620 hn        1 MOL      0.310368
    128 H58        -5.9600    3.0720   -0.9020 h1        1 MOL      0.042099
    129 H59        -8.3960    2.8440   -0.0420 h1        1 MOL      0.058888
    130 H60        -7.4160    4.0000    0.9200 h1        1 MOL      0.058888
    131 H61        -8.5920    2.7660    2.2310 ho        1 MOL      0.407007
    132 N12        -7.0400    1.2360   -2.0990 n         1 MOL     -0.503923
    133 C43        -7.0670    0.2100   -3.1470 c3        1 MOL      0.349661
    134 C44        -7.9550   -0.9320   -2.7930 c         1 MOL      0.195859
    135 O18        -7.8500   -1.9840   -3.4760 o         1 MOL     -0.457075
    136 C45        -5.6690   -0.0320   -3.7120 c3        1 MOL     -0.509619
    137 H62        -7.3580    2.1790   -2.3020 hn        1 MOL      0.247105
    138 H63        -7.6390    0.6270   -3.9800 h1        1 MOL      0.061688
    139 H64        -5.8160   -0.7270   -4.5380 hc        1 MOL      0.137855
    140 H65        -5.3540    0.9770   -3.9900 hc        1 MOL      0.137855
    141 H66        -5.0640   -0.4780   -2.9220 hc        1 MOL      0.137855
    142 N13        -8.7980   -0.8370   -1.8110 n         1 MOL     -0.226240
    143 C46        -9.6940   -1.8440   -1.2350 c3        1 MOL      0.143095
    144 C47        -8.9820   -3.1450   -0.8100 c         1 MOL      0.297918
    145 O19        -9.4440   -4.2500   -0.9660 o         1 MOL     -0.448277
    146 C48       -10.9610   -2.0010   -2.1770 c3        1 MOL     -0.242573
    147 H67        -8.7970    0.1020   -1.4580 hn        1 MOL      0.162498
    148 H68       -10.0550   -1.3200   -0.3470 h1        1 MOL      0.035336
    149 H69       -11.4050   -1.0770   -2.5480 hc        1 MOL      0.080581
    150 H70       -10.8730   -2.6370   -3.0570 hc        1 MOL      0.080581
    151 H71       -11.7280   -2.5220   -1.5980 hc        1 MOL      0.080581
    152 N14        -7.7280   -2.9400   -0.3450 n         1 MOL     -0.115214
    153 C49        -6.7580   -3.9620   -0.0210 c3        1 MOL     -0.233872
    154 C50        -6.8970   -4.5070    1.4060 c         1 MOL      0.529079
    155 O20        -6.5310   -5.6890    1.5800 o         1 MOL     -0.541376
    156 C51        -5.4350   -3.3320   -0.4170 c3        1 MOL      0.230537
    157 C52        -4.1980   -4.2550   -0.2270 c3        1 MOL     -0.118684
    158 C53        -2.8780   -3.7310   -0.8630 c         1 MOL      0.587629
    159 O21        -2.0320   -4.4780   -1.4510 o         1 MOL     -0.725236
    160 O22        -2.6250   -2.5170   -0.7730 o         1 MOL     -0.725236
    161 H72        -7.5070   -1.9660   -0.1870 hn        1 MOL      0.141558
    162 H73        -6.8370   -4.8120   -0.7060 h1        1 MOL      0.157163
    163 H74        -5.2910   -2.4220    0.1660 hc        1 MOL      0.001966
    164 H75        -5.4990   -3.0280   -1.4610 hc        1 MOL      0.001966
    165 H76        -4.2210   -5.2570   -0.6570 hc        1 MOL      0.028608
    166 H77        -4.1050   -4.3170    0.8580 hc        1 MOL      0.028608
    167 N15        -7.3590   -3.7740    2.4290 n         1 MOL     -0.296384
    168 C54        -7.8280   -4.3870    3.6980 c3        1 MOL     -0.226271
    169 H78        -7.3620   -3.8760    4.5410 h1        1 MOL      0.111064
    170 H79        -8.9120   -4.2910    3.7700 h1        1 MOL      0.111064
    171 H80        -7.5540   -5.4410    3.7160 h1        1 MOL      0.111064
    172 H81        -7.5870   -2.8070    2.2390 hn        1 MOL      0.220997
    173 Ca1        -0.3370   -2.6810   -2.2740 Ca        1 MOL      1.707175
    174 O23        -0.9490   -4.4850   -4.3110 oh        1 MOL     -0.801472
    175 H82        -0.7040   -5.2080   -4.8840 ho        1 MOL      0.397691
    176 H83        -1.8280   -4.2390   -4.5830 ho        1 MOL      0.397691
    177 O24         0.7200   -1.8820    0.0560 oh        1 MOL     -0.801472
    178 H84         0.2710   -1.2480    0.6180 ho        1 MOL      0.397691
    179 H85         1.5530   -2.0460    0.5050 ho        1 MOL      0.397691
    180 O25         0.4230   -1.5320   -4.7810 oh        1 MOL     -0.801472
    181 H86         1.1370   -0.9020   -4.8510 ho        1 MOL      0.397691
    182 H87        -0.0530   -1.4310   -5.6090 ho        1 MOL      0.397691
    183 O26        -2.5640   -1.9280   -3.6810 oh        1 MOL     -0.801472
    184 H88        -2.9890   -2.1150   -4.5140 ho        1 MOL      0.397691
    185 H89        -2.7750   -1.0120   -3.5020 ho        1 MOL      0.397691
    186 O27        -0.6080    0.1680   -1.9650 oh        1 MOL     -0.801472
    187 H90        -1.0030    0.7850   -1.3540 ho        1 MOL      0.397691
    188 H91        -0.6740    0.5970   -2.8150 ho        1 MOL      0.397691
@<TRIPOS>BOND
     1    1    2 1   
     2    1    4 1   
     3    1    5 1   
     4    1    6 1   
     5    2    3 2   
     6    2    7 1   
     7    7    8 1   
     8    7   15 1   
     9    8    9 1   
    10    8   11 1   
    11    8   16 1   
    12    9   10 2   
    13    9   19 1   
    14   11   12 1   
    15   11   17 1   
    16   11   18 1   
    17   12   13 1   
    18   12   14 1   
    19   19   20 1   
    20   19   28 1   
    21   20   21 1   
    22   20   23 1   
    23   20   29 1   
    24   21   22 2   
    25   21   41 1   
    26   23   24 1   
    27   23   30 1   
    28   23   31 1   
    29   24   25 1   
    30   24   32 1   
    31   24   33 1   
    32   25   26 1   
    33   25   34 1   
    34   25   35 1   
    35   26   27 1   
    36   26   36 1   
    37   26   37 1   
    38   27   38 1   
    39   27   39 1   
    40   27   40 1   
    41   41   42 1   
    42   41   49 1   
    43   42   43 1   
    44   42   45 1   
    45   42   50 1   
    46   43   44 2   
    47   43   53 1   
    48   45   46 1   
    49   45   51 1   
    50   45   52 1   
    51   46   47 1   
    52   46   48 1   
    53   53   54 1   
    54   53   57 1   
    55   54   55 1   
    56   54   58 1   
    57   54   59 1   
    58   55   56 2   
    59   55   60 1   
    60   60   61 1   
    61   60   68 1   
    62   61   62 1   
    63   61   64 1   
    64   61   69 1   
    65   62   63 2   
    66   62   74 1   
    67   64   65 1   
    68   64   70 1   
    69   64   71 1   
    70   65   66 1   
    71   65   67 2   
    72   66   72 1   
    73   66   73 1   
    74   74   75 1   
    75   74   78 1   
    76   75   76 1   
    77   75   79 1   
    78   75   80 1   
    79   76   77 2   
    80   76   81 1   
    81   81   82 1   
    82   81   93 1   
    83   82   83 1   
    84   82   85 1   
    85   82   94 1   
    86   83   84 2   
    87   83  102 1   
    88   85   86 1   
    89   85   95 1   
    90   85   96 1   
    91   86   87 ar  
    92   86   88 ar  
    93   87   89 ar  
    94   87   97 1   
    95   88   90 ar  
    96   88   98 1   
    97   89   91 ar  
    98   89   99 1   
    99   90   91 ar  
   100   90  100 1   
   101   91   92 1   
   102   92  101 1   
   103  102  103 1   
   104  102  110 1   
   105  103  104 1   
   106  103  106 1   
   107  103  111 1   
   108  104  105 2   
   109  104  121 1   
   110  106  107 1   
   111  106  108 1   
   112  106  112 1   
   113  107  109 1   
   114  107  113 1   
   115  107  114 1   
   116  108  115 1   
   117  108  116 1   
   118  108  117 1   
   119  109  118 1   
   120  109  119 1   
   121  109  120 1   
   122  121  122 1   
   123  121  127 1   
   124  122  123 1   
   125  122  125 1   
   126  122  128 1   
   127  123  124 2   
   128  123  132 1   
   129  125  126 1   
   130  125  129 1   
   131  125  130 1   
   132  126  131 1   
   133  132  133 1   
   134  132  137 1   
   135  133  134 1   
   136  133  136 1   
   137  133  138 1   
   138  134  135 2   
   139  134  142 1   
   140  136  139 1   
   141  136  140 1   
   142  136  141 1   
   143  142  143 1   
   144  142  147 1   
   145  143  144 1   
   146  143  146 1   
   147  143  148 1   
   148  144  145 2   
   149  144  152 1   
   150  146  149 1   
   151  146  150 1   
   152  146  151 1   
   153  152  153 1   
   154  152  161 1   
   155  153  154 1   
   156  153  156 1   
   157  153  162 1   
   158  154  155 2   
   159  154  167 1   
   160  156  157 1   
   161  156  163 1   
   162  156  164 1   
   163  157  158 1   
   164  157  165 1   
   165  157  166 1   
   166  158  159 1   
   167  158  160 1   
   168  167  168 1   
   169  167  172 1   
   170  168  169 1   
   171  168  170 1   
   172  168  171 1   
   173  174  175 1   
   174  174  176 1   
   175  177  178 1   
   176  177  179 1   
   177  180  181 1   
   178  180  182 1   
   179  183  184 1   
   180  183  185 1   
   181  186  187 1   
   182  186  188 1   
@<TRIPOS>SUBSTRUCTURE
     1 MOL         1 TEMP              0 ****  ****    0 ROOT
