@<TRIPOS>MOLECULE
MOL
  178   175     1     0     0
SMALL
resp


@<TRIPOS>ATOM
      1 C1          3.0600   -3.3400    3.5960 c3        1 MOL     -0.365912
      2 C2          4.0510   -2.2420    3.0990 c         1 MOL      0.653710
      3 O1          4.0000   -1.9140    1.9220 o         1 MOL     -0.546544
      4 H1          2.9650   -3.2780    4.6800 hc        1 MOL      0.090519
      5 H2          2.0840   -3.1830    3.1370 hc        1 MOL      0.090519
      6 H3          3.4390   -4.3240    3.3200 hc        1 MOL      0.090519
      7 N1          4.9510   -1.7860    3.9870 n         1 MOL     -0.531083
      8 C3          5.8230   -0.6290    3.6040 c3        1 MOL      0.187852
      9 C4          6.7820   -0.8380    2.4610 c         1 MOL      0.491479
     10 O2          6.9500    0.0660    1.6890 o         1 MOL     -0.430645
     11 C5          6.6820   -0.2970    4.7980 c3        1 MOL     -0.103201
     12 C6          7.3440    1.0900    4.6560 c         1 MOL      0.720299
     13 O3          6.7140    1.9480    4.0170 o         1 MOL     -0.723906
     14 O4          8.4590    1.3050    5.1890 o         1 MOL     -0.723906
     15 H4          4.9940   -2.1630    4.9220 hn        1 MOL      0.284868
     16 H5          5.2010    0.2200    3.3230 h1        1 MOL      0.058243
     17 H6          7.4700   -0.9980    5.0700 hc        1 MOL     -0.038750
     18 H7          6.0480   -0.1630    5.6800 hc        1 MOL     -0.038750
     19 N2          7.1890   -2.1160    2.2820 n         1 MOL     -0.352760
     20 C7          8.0450   -2.5590    1.1990 c3        1 MOL      0.184628
     21 C8          7.5120   -2.2450   -0.2310 c         1 MOL      0.352527
     22 O5          8.3090   -1.9310   -1.1890 o         1 MOL     -0.518794
     23 C9          9.5170   -2.0020    1.3590 c3        1 MOL     -0.467517
     24 H8          6.7720   -2.7930    2.9110 hn        1 MOL      0.204076
     25 H9          8.0560   -3.6440    1.2810 h1        1 MOL      0.038176
     26 H10         9.5630   -0.9170    1.3460 hc        1 MOL      0.127590
     27 H11         9.8780   -2.3940    2.3000 hc        1 MOL      0.127590
     28 H12        10.1570   -2.3990    0.5690 hc        1 MOL      0.127590
     29 N3          6.1820   -2.2590   -0.4030 n         1 MOL     -0.323953
     30 C10         5.5070   -1.9230   -1.5940 c3        1 MOL      0.148232
     31 C11         5.7240   -0.4740   -2.0410 c         1 MOL      0.388377
     32 O6          5.3770   -0.2180   -3.2020 o         1 MOL     -0.497036
     33 C12         5.6650   -3.1150   -2.5810 c3        1 MOL     -0.301282
     34 C13         4.5850   -3.1180   -3.7430 c         1 MOL      0.653831
     35 O7          4.9250   -3.2980   -4.9170 o         1 MOL     -0.684843
     36 O8          3.3520   -2.9300   -3.4790 o         1 MOL     -0.684843
     37 H13         5.6630   -2.4120    0.4450 hn        1 MOL      0.166337
     38 H14         4.4340   -1.8620   -1.3980 h1        1 MOL      0.076645
     39 H15         5.5740   -4.0390   -2.0160 hc        1 MOL      0.077339
     40 H16         6.7070   -3.1030   -2.9080 hc        1 MOL      0.077339
     41 N4          6.1840    0.4040   -1.2200 n         1 MOL      0.002183
     42 C14         6.4010    1.8180   -1.5180 c3        1 MOL     -0.268608
     43 C15         5.1070    2.6130   -1.9020 c         1 MOL      0.631576
     44 O9          5.2440    3.8090   -2.2950 o         1 MOL     -0.581957
     45 H17         6.2580    0.0790   -0.2640 hn        1 MOL      0.102385
     46 H18         7.0650    2.1100   -2.3320 h1        1 MOL      0.118374
     47 H19         6.7610    2.3120   -0.6090 h1        1 MOL      0.118374
     48 N5          3.9100    2.0240   -1.7490 n         1 MOL     -0.436840
     49 C16         2.6750    2.6700   -2.3780 c3        1 MOL     -0.023048
     50 C17         2.1950    3.9590   -1.6200 c         1 MOL      0.666657
     51 O10         2.2010    3.9900   -0.4170 o         1 MOL     -0.526850
     52 C18         1.4840    1.6790   -2.3480 c3        1 MOL     -0.341757
     53 C19         1.7560    0.3610   -3.1210 c         1 MOL      0.761227
     54 N6          2.0830    0.4750   -4.3140 n         1 MOL     -0.827406
     55 O11         1.7070   -0.7430   -2.6200 o         1 MOL     -0.638764
     56 H20         3.8470    1.1330   -1.2770 hn        1 MOL      0.284622
     57 H21         2.9690    2.9650   -3.3820 h1        1 MOL      0.040360
     58 H22         0.6920    2.2840   -2.7910 hc        1 MOL      0.130922
     59 H23         1.2270    1.3900   -1.3230 hc        1 MOL      0.130922
     60 H24         2.1600    1.3790   -4.7620 hn        1 MOL      0.382957
     61 H25         2.5010   -0.3310   -4.7610 hn        1 MOL      0.382957
     62 N7          1.7920    5.0110   -2.3920 n         1 MOL     -0.542690
     63 C20         1.3890    6.4210   -1.9680 c3        1 MOL     -0.053959
     64 C21        -0.0950    6.7910   -1.9720 c         1 MOL      0.472955
     65 O12        -0.8580    6.4820   -2.9020 o         1 MOL     -0.481003
     66 H26         1.7300    4.7900   -3.3710 hn        1 MOL      0.302477
     67 H27         1.8520    7.1130   -2.6690 h1        1 MOL      0.107209
     68 H28         1.9120    6.6350   -1.0430 h1        1 MOL      0.107209
     69 N8         -0.6040    7.6160   -1.0510 n         1 MOL     -0.479916
     70 C22        -2.0460    7.6490   -0.6920 c3        1 MOL     -0.016410
     71 C23        -2.5740    6.2500   -0.2610 c         1 MOL      0.549326
     72 O13        -3.6770    5.7770   -0.6420 o         1 MOL     -0.563791
     73 C24        -2.0850    8.7600    0.3360 c3        1 MOL      0.253058
     74 C25        -3.4960    9.1260    0.7460 c3        1 MOL     -0.318484
     75 O14        -1.3060    8.3340    1.5010 oh        1 MOL     -0.598495
     76 H29         0.0310    8.1340   -0.4550 hn        1 MOL      0.255769
     77 H30        -2.7210    7.8470   -1.5320 h1        1 MOL      0.103414
     78 H31        -1.7160    9.6970   -0.0740 h1        1 MOL      0.038387
     79 H32        -1.1810    9.1360    2.0120 ho        1 MOL      0.395475
     80 H33        -3.5790   10.0580    1.3010 hc        1 MOL      0.083958
     81 H34        -4.0580    9.2010   -0.1870 hc        1 MOL      0.083958
     82 H35        -3.9740    8.3320    1.3270 hc        1 MOL      0.083958
     83 N9         -1.8090    5.5050    0.5210 n         1 MOL     -0.193949
     84 C26        -2.0470    4.1400    1.0260 c3        1 MOL     -0.235720
     85 C27        -1.7900    2.9940    0.0160 c         1 MOL      0.618241
     86 O15        -1.0780    3.1050   -1.0050 o         1 MOL     -0.468458
     87 C28        -1.3000    3.8400    2.3790 c3        1 MOL      0.145105
     88 C29         0.1860    3.8130    2.1800 c3        1 MOL     -0.165526
     89 C30        -1.6820    4.9380    3.3410 c3        1 MOL     -0.334181
     90 C31         0.9680    3.3120    3.4290 c3        1 MOL     -0.165801
     91 H36        -1.0110    6.0240    0.8800 hn        1 MOL      0.202454
     92 H37        -3.1050    4.0390    1.2740 h1        1 MOL      0.102517
     93 H38        -1.7030    2.9430    2.8580 hc        1 MOL      0.031356
     94 H39         0.5290    4.8070    1.8890 hc        1 MOL      0.124303
     95 H40         0.4860    3.1420    1.3730 hc        1 MOL      0.124303
     96 H41        -1.2480    4.9200    4.3440 hc        1 MOL      0.076669
     97 H42        -1.3640    5.8940    2.9260 hc        1 MOL      0.076669
     98 H43        -2.7700    4.9950    3.3530 hc        1 MOL      0.076669
     99 H44         0.6590    2.2700    3.5300 hc        1 MOL      0.055823
    100 H45         2.0520    3.4360    3.3570 hc        1 MOL      0.055823
    101 H46         0.6280    3.8000    4.3380 hc        1 MOL      0.055823
    102 N10        -2.4770    1.8240    0.2990 n         1 MOL     -0.638298
    103 C32        -2.4030    0.5910   -0.5020 c3        1 MOL      0.138116
    104 C33        -3.7590   -0.1880   -0.4220 c         1 MOL      0.477233
    105 O16        -3.7280   -1.3890   -0.2700 o         1 MOL     -0.399225
    106 C34        -1.2770   -0.2030    0.2040 c3        1 MOL      0.013453
    107 C35        -0.5830   -1.2230   -0.6480 c         1 MOL      0.582530
    108 O17         0.4430   -1.7690   -0.1890 o         1 MOL     -0.697772
    109 O18        -1.0820   -1.5720   -1.7250 o         1 MOL     -0.697772
    110 H47        -3.0970    1.8560    1.0960 hn        1 MOL      0.302098
    111 H48        -2.1430    0.8500   -1.5300 h1        1 MOL      0.071114
    112 H49        -1.5080   -0.7770    1.1040 hc        1 MOL      0.009892
    113 H50        -0.5180    0.4970    0.5550 hc        1 MOL      0.009892
    114 N11        -4.8940    0.5320   -0.5330 n         1 MOL     -0.481705
    115 C36        -6.2450   -0.1000   -0.5430 c3        1 MOL      0.163280
    116 C37        -6.3140   -1.2620    0.3900 c         1 MOL      0.284536
    117 O19        -6.1450   -0.9580    1.5470 o         1 MOL     -0.480673
    118 C38        -7.3390    0.8670   -0.1250 c3        1 MOL     -0.295068
    119 C39        -8.7390    0.2560   -0.2350 ca        1 MOL      0.113828
    120 C40        -9.2630    0.0610   -1.5400 ca        1 MOL     -0.179821
    121 C41        -9.4510   -0.2210    0.8840 ca        1 MOL     -0.179821
    122 C42       -10.4770   -0.5530   -1.6850 ca        1 MOL     -0.103153
    123 C43       -10.7910   -0.6190    0.7960 ca        1 MOL     -0.103153
    124 C44       -11.2050   -0.9250   -0.5240 ca        1 MOL     -0.125271
    125 H51        -4.9070    1.5280   -0.6770 hn        1 MOL      0.301136
    126 H52        -6.3460   -0.4170   -1.5830 h1        1 MOL      0.014735
    127 H53        -7.3640    1.7630   -0.7450 hc        1 MOL      0.118943
    128 H54        -7.1280    1.2610    0.8750 hc        1 MOL      0.118943
    129 H55        -8.6720    0.3130   -2.4220 ha        1 MOL      0.125989
    130 H56        -8.9890   -0.1150    1.8470 ha        1 MOL      0.125989
    131 H57       -10.9050   -0.7830   -2.6480 ha        1 MOL      0.118171
    132 H58       -11.3950   -0.6860    1.6950 ha        1 MOL      0.118171
    133 H59       -12.1800   -1.3490   -0.6690 ha        1 MOL      0.087573
    134 N12        -6.6390   -2.4750   -0.1440 n         1 MOL      0.186452
    135 C45        -6.9490   -3.5910    0.6930 c3        1 MOL      0.033027
    136 C46        -5.8330   -4.0800    1.6560 c         1 MOL      0.252757
    137 O20        -6.1270   -4.5680    2.7860 o         1 MOL     -0.527644
    138 C47        -7.2970   -4.7230   -0.2550 c3        1 MOL     -0.105083
    139 C48        -6.7830   -4.3790   -1.6290 c3        1 MOL     -0.054326
    140 C49        -6.7820   -2.8440   -1.5410 c3        1 MOL     -0.130681
    141 H60        -7.8090   -3.3510    1.3210 h1        1 MOL      0.051779
    142 H61        -6.9260   -5.6740    0.1270 hc        1 MOL      0.039800
    143 H62        -8.3830   -4.7310   -0.3440 hc        1 MOL      0.039800
    144 H63        -5.7740   -4.7640   -1.7160 hc        1 MOL      0.054700
    145 H64        -7.3710   -4.8640   -2.4090 hc        1 MOL      0.054700
    146 H65        -6.0490   -2.4060   -2.2150 h1        1 MOL      0.047935
    147 H66        -7.7690   -2.4740   -1.8250 h1        1 MOL      0.047935
    148 N13        -4.5660   -3.7630    1.4000 n         1 MOL     -0.058587
    149 C50        -3.4220   -4.1670    2.3070 c3        1 MOL     -0.223922
    150 C51        -3.2460   -3.2430    3.5460 c         1 MOL      0.504426
    151 O21        -2.7930   -3.6580    4.6240 o         1 MOL     -0.550266
    152 C52        -2.1600   -4.2680    1.3840 c3        1 MOL      0.013176
    153 C53        -2.2280   -5.1820    0.1720 c3        1 MOL     -0.055925
    154 C54        -1.0120   -5.0020   -0.7590 c         1 MOL      0.540020
    155 O22         0.1690   -5.0310   -0.2700 o         1 MOL     -0.679167
    156 O23        -1.2080   -4.6240   -1.9570 o         1 MOL     -0.679167
    157 H67        -4.3560   -3.2790    0.5300 hn        1 MOL      0.154513
    158 H68        -3.6850   -5.1800    2.6240 h1        1 MOL      0.136345
    159 H69        -1.2920   -4.6380    1.9210 hc        1 MOL      0.046060
    160 H70        -1.8880   -3.2870    1.0000 hc        1 MOL      0.046060
    161 H71        -3.1530   -5.0170   -0.3710 hc        1 MOL      0.001610
    162 H72        -2.2590   -6.2490    0.3750 hc        1 MOL      0.001610
    163 N14        -3.7570   -2.0200    3.4280 n         1 MOL     -0.177928
    164 C55        -3.6410   -0.9390    4.4680 c3        1 MOL     -0.165814
    165 H73        -2.8770   -1.2160    5.1940 h1        1 MOL      0.078857
    166 H74        -3.3630   -0.0010    3.9870 h1        1 MOL      0.078857
    167 H75        -4.5980   -0.8190    4.9750 h1        1 MOL      0.078857
    168 H76        -4.3010   -1.7650    2.6130 hn        1 MOL      0.195906
    169 Ca1         1.0930   -3.3020   -2.1100 Ca        1 MOL      1.743833
    170 O24         2.7510   -3.6820   -0.0520 oh        1 MOL     -0.849261
    171 H77         3.1100   -4.4520    0.3930 ho        1 MOL      0.409335
    172 H78         2.7080   -3.0070    0.6310 ho        1 MOL      0.409335
    173 O25         1.8700   -5.6600   -2.8480 oh        1 MOL     -0.849261
    174 H79         1.6780   -6.4630   -2.3630 ho        1 MOL      0.409335
    175 H80         2.4770   -5.9400   -3.5360 ho        1 MOL      0.409335
    176 O26         0.3800   -3.2580   -4.6300 oh        1 MOL     -0.849261
    177 H81        -0.3080   -3.3380   -5.2920 ho        1 MOL      0.409335
    178 H82         1.0970   -2.8170   -5.0830 ho        1 MOL      0.409335
@<TRIPOS>BOND
     1    1    2 1   
     2    1    4 1   
     3    1    5 1   
     4    1    6 1   
     5    2    3 2   
     6    2    7 1   
     7    7    8 1   
     8    7   15 1   
     9    8    9 1   
    10    8   11 1   
    11    8   16 1   
    12    9   10 2   
    13    9   19 1   
    14   11   12 1   
    15   11   17 1   
    16   11   18 1   
    17   12   13 1   
    18   12   14 1   
    19   19   20 1   
    20   19   24 1   
    21   20   21 1   
    22   20   23 1   
    23   20   25 1   
    24   21   22 2   
    25   21   29 1   
    26   23   26 1   
    27   23   27 1   
    28   23   28 1   
    29   29   30 1   
    30   29   37 1   
    31   30   31 1   
    32   30   33 1   
    33   30   38 1   
    34   31   32 2   
    35   31   41 1   
    36   33   34 1   
    37   33   39 1   
    38   33   40 1   
    39   34   35 1   
    40   34   36 1   
    41   41   42 1   
    42   41   45 1   
    43   42   43 1   
    44   42   46 1   
    45   42   47 1   
    46   43   44 2   
    47   43   48 1   
    48   48   49 1   
    49   48   56 1   
    50   49   50 1   
    51   49   52 1   
    52   49   57 1   
    53   50   51 2   
    54   50   62 1   
    55   52   53 1   
    56   52   58 1   
    57   52   59 1   
    58   53   54 1   
    59   53   55 2   
    60   54   60 1   
    61   54   61 1   
    62   62   63 1   
    63   62   66 1   
    64   63   64 1   
    65   63   67 1   
    66   63   68 1   
    67   64   65 2   
    68   64   69 1   
    69   69   70 1   
    70   69   76 1   
    71   70   71 1   
    72   70   73 1   
    73   70   77 1   
    74   71   72 2   
    75   71   83 1   
    76   73   74 1   
    77   73   75 1   
    78   73   78 1   
    79   74   80 1   
    80   74   81 1   
    81   74   82 1   
    82   75   79 1   
    83   83   84 1   
    84   83   91 1   
    85   84   85 1   
    86   84   87 1   
    87   84   92 1   
    88   85   86 2   
    89   85  102 1   
    90   87   88 1   
    91   87   89 1   
    92   87   93 1   
    93   88   90 1   
    94   88   94 1   
    95   88   95 1   
    96   89   96 1   
    97   89   97 1   
    98   89   98 1   
    99   90   99 1   
   100   90  100 1   
   101   90  101 1   
   102  102  103 1   
   103  102  110 1   
   104  103  104 1   
   105  103  106 1   
   106  103  111 1   
   107  104  105 2   
   108  104  114 1   
   109  106  107 1   
   110  106  112 1   
   111  106  113 1   
   112  107  108 1   
   113  107  109 1   
   114  114  115 1   
   115  114  125 1   
   116  115  116 1   
   117  115  118 1   
   118  115  126 1   
   119  116  117 2   
   120  116  134 1   
   121  118  119 1   
   122  118  127 1   
   123  118  128 1   
   124  119  120 ar  
   125  119  121 ar  
   126  120  122 ar  
   127  120  129 1   
   128  121  123 ar  
   129  121  130 1   
   130  122  124 ar  
   131  122  131 1   
   132  123  124 ar  
   133  123  132 1   
   134  124  133 1   
   135  134  135 1   
   136  134  140 1   
   137  135  136 1   
   138  135  138 1   
   139  135  141 1   
   140  136  137 2   
   141  136  148 1   
   142  138  139 1   
   143  138  142 1   
   144  138  143 1   
   145  139  140 1   
   146  139  144 1   
   147  139  145 1   
   148  140  146 1   
   149  140  147 1   
   150  148  149 1   
   151  148  157 1   
   152  149  150 1   
   153  149  152 1   
   154  149  158 1   
   155  150  151 2   
   156  150  163 1   
   157  152  153 1   
   158  152  159 1   
   159  152  160 1   
   160  153  154 1   
   161  153  161 1   
   162  153  162 1   
   163  154  155 1   
   164  154  156 1   
   165  163  164 1   
   166  163  168 1   
   167  164  165 1   
   168  164  166 1   
   169  164  167 1   
   170  170  171 1   
   171  170  172 1   
   172  173  174 1   
   173  173  175 1   
   174  176  177 1   
   175  176  178 1   
@<TRIPOS>SUBSTRUCTURE
     1 MOL         1 TEMP              0 ****  ****    0 ROOT
