@<TRIPOS>MOLECULE
MOL
  191   184     1     0     0
SMALL
resp


@<TRIPOS>ATOM
      1 C1         -5.3010    1.1550   -2.9740 c3        1 MOL     -0.407275
      2 C2         -6.4570    1.0610   -1.9150 c         1 MOL      0.657876
      3 O1         -6.2170    0.6350   -0.7610 o         1 MOL     -0.498601
      4 H1         -4.4260    0.6190   -2.6050 hc        1 MOL      0.108606
      5 H2         -5.6300    0.7090   -3.9130 hc        1 MOL      0.108606
      6 H3         -5.0430    2.2010   -3.1390 hc        1 MOL      0.108606
      7 N1         -7.6940    1.4020   -2.2480 n         1 MOL     -0.496816
      8 C3         -8.8870    1.2810   -1.3120 c3        1 MOL      0.079257
      9 C4         -9.1370   -0.0600   -0.6400 c         1 MOL      0.542672
     10 O2         -9.8130   -0.1550    0.4140 o         1 MOL     -0.533791
     11 C5         -8.9150    2.4080   -0.2360 c3        1 MOL     -0.215894
     12 C6         -8.5680    3.8340   -0.7470 c         1 MOL      0.753237
     13 O3         -9.5260    4.5010   -1.2610 o         1 MOL     -0.699040
     14 O4         -7.4330    4.2470   -0.6980 o         1 MOL     -0.699040
     15 H4         -7.9100    1.6810   -3.1920 hn        1 MOL      0.302116
     16 H5         -9.6950    1.5080   -2.0160 h1        1 MOL     -0.007271
     17 H6         -8.1140    2.2210    0.4850 hc        1 MOL      0.061176
     18 H7         -9.9050    2.4940    0.2180 hc        1 MOL      0.061176
     19 N2         -8.5700   -1.1460   -1.1490 n         1 MOL     -0.500663
     20 C7         -8.7830   -2.5030   -0.5720 c3        1 MOL      0.230070
     21 C8         -7.4160   -3.0960   -0.2420 c         1 MOL      0.493014
     22 O5         -7.3510   -4.2690    0.0030 o         1 MOL     -0.585490
     23 C9         -9.4400   -3.3950   -1.6630 c3        1 MOL     -0.234094
     24 C10       -10.4680   -2.7650   -2.5980 c3        1 MOL      0.256094
     25 C11       -11.6280   -2.1610   -1.8250 c3        1 MOL     -0.100161
     26 C12       -12.8260   -1.8930   -2.7820 c3        1 MOL     -0.083593
     27 N3        -12.5190   -0.8020   -3.7630 n4        1 MOL     -0.393289
     28 H8         -8.0520   -1.0400   -2.0080 hn        1 MOL      0.257259
     29 H9         -9.3630   -2.5410    0.3450 h1        1 MOL      0.078270
     30 H10        -9.7910   -4.2990   -1.1720 hc        1 MOL      0.075801
     31 H11        -8.6250   -3.6370   -2.3520 hc        1 MOL      0.075801
     32 H12       -10.8190   -3.5750   -3.2290 hc        1 MOL     -0.072979
     33 H13        -9.8550   -2.0660   -3.1690 hc        1 MOL     -0.072979
     34 H14       -11.3770   -1.2340   -1.3090 hc        1 MOL      0.064144
     35 H15       -12.0170   -2.8900   -1.1170 hc        1 MOL      0.064144
     36 H16       -13.6920   -1.5970   -2.1810 hx        1 MOL      0.129180
     37 H17       -13.0820   -2.8110   -3.3200 hx        1 MOL      0.129180
     38 H18       -12.4740    0.0810   -3.2780 hn        1 MOL      0.310879
     39 H19       -11.6240   -1.0430   -4.1730 hn        1 MOL      0.310879
     40 H20       -13.2510   -0.6910   -4.4530 hn        1 MOL      0.310879
     41 N4         -6.3390   -2.3960   -0.1160 n         1 MOL     -0.251103
     42 C13        -5.0120   -2.8830    0.3400 c3        1 MOL     -0.031555
     43 C14        -4.7980   -2.9140    1.8820 c         1 MOL      0.544038
     44 O6         -5.5860   -2.2820    2.6170 o         1 MOL     -0.475048
     45 C15        -3.8770   -2.0970   -0.3760 c3        1 MOL     -0.129747
     46 C16        -2.4220   -2.4440    0.0720 c         1 MOL      0.771364
     47 O7         -1.7300   -3.2680   -0.5340 o         1 MOL     -0.771390
     48 O8         -1.9020   -1.7720    0.9530 o         1 MOL     -0.771390
     49 H21        -6.3340   -1.4000   -0.3130 hn        1 MOL      0.151926
     50 H22        -4.9470   -3.8680   -0.1060 h1        1 MOL      0.057279
     51 H23        -4.0410   -1.0750   -0.0330 hc        1 MOL      0.033887
     52 H24        -3.9880   -2.0590   -1.4620 hc        1 MOL      0.033887
     53 N5         -3.8670   -3.6840    2.4050 n         1 MOL     -0.384778
     54 C17        -3.6970   -3.7630    3.8920 c3        1 MOL     -0.149479
     55 C18        -3.3150   -2.5030    4.6150 c         1 MOL      0.572767
     56 O9         -3.7330   -2.3540    5.7370 o         1 MOL     -0.547650
     57 H25        -3.3140   -4.3100    1.8440 hn        1 MOL      0.280854
     58 H26        -2.9900   -4.5200    4.2400 h1        1 MOL      0.092655
     59 H27        -4.6460   -3.9830    4.3720 h1        1 MOL      0.092655
     60 N6         -2.5630   -1.6010    3.9870 n         1 MOL     -0.328718
     61 C19        -2.1560   -0.2750    4.5700 c3        1 MOL     -0.138908
     62 C20        -2.1840    0.9280    3.5350 c         1 MOL      0.570087
     63 O10        -2.0270    2.0720    3.9330 o         1 MOL     -0.553315
     64 C21        -0.7260   -0.5020    5.0850 c3        1 MOL     -0.043097
     65 C22         0.3800   -0.5720    4.0520 c         1 MOL      0.558249
     66 N7          1.4490    0.1430    4.1640 n         1 MOL     -0.726028
     67 O11         0.2590   -1.2660    3.0090 o         1 MOL     -0.607026
     68 H28        -2.0420   -2.0480    3.2400 hn        1 MOL      0.269203
     69 H29        -2.8220   -0.0700    5.4040 h1        1 MOL      0.161408
     70 H30        -0.6950   -1.3820    5.7320 hc        1 MOL      0.049970
     71 H31        -0.4990    0.2570    5.8390 hc        1 MOL      0.049970
     72 H32         1.5810    0.8170    4.9050 hn        1 MOL      0.363843
     73 H33         2.1350    0.0230    3.4260 hn        1 MOL      0.363843
     74 N8         -2.3190    0.5990    2.2370 n         1 MOL     -0.308156
     75 C23        -2.1720    1.5150    1.0820 c3        1 MOL     -0.062030
     76 C24        -0.8450    2.2090    0.8250 c         1 MOL      0.689639
     77 O12         0.0750    2.0120    1.6050 o         1 MOL     -0.519594
     78 H34        -2.2900   -0.3910    2.0380 hn        1 MOL      0.151195
     79 H35        -2.9150    2.2730    1.2840 h1        1 MOL      0.090827
     80 H36        -2.4920    0.9450    0.2070 h1        1 MOL      0.090827
     81 N9         -0.7360    3.0490   -0.1730 n         1 MOL     -0.556451
     82 C25         0.5560    3.7130   -0.5240 c3        1 MOL      0.072576
     83 C26         1.6600    2.8440   -1.1880 c         1 MOL      0.297045
     84 O13         1.3310    1.7700   -1.7280 o         1 MOL     -0.442829
     85 C27         0.3270    4.8820   -1.4620 c3        1 MOL      0.058711
     86 C28        -0.4940    5.9980   -0.8990 ca        1 MOL     -0.165116
     87 C29        -1.6670    6.2660   -1.6060 ca        1 MOL     -0.000953
     88 C30        -0.1610    6.6240    0.2950 ca        1 MOL     -0.000953
     89 C31        -2.4810    7.2980   -1.0510 ca        1 MOL     -0.377960
     90 C32        -1.0770    7.5460    0.8680 ca        1 MOL     -0.377960
     91 C33        -2.2850    7.8200    0.2120 ca        1 MOL      0.485474
     92 O14        -3.2240    8.6260    0.7800 oh        1 MOL     -0.504900
     93 H37        -1.5310    3.1760   -0.7890 hn        1 MOL      0.299890
     94 H38         0.8680    4.0650    0.4630 h1        1 MOL      0.041299
     95 H39        -0.1640    4.4910   -2.3530 hc        1 MOL      0.043932
     96 H40         1.2820    5.2680   -1.8100 hc        1 MOL      0.043932
     97 H41        -1.8650    5.8440   -2.5780 ha        1 MOL      0.099638
     98 H42         0.7640    6.3680    0.8050 ha        1 MOL      0.099638
     99 H43        -3.4260    7.3880   -1.5640 ha        1 MOL      0.176613
    100 H44        -0.8400    8.0400    1.7930 ha        1 MOL      0.176613
    101 H45        -3.0860    8.8120    1.7160 ho        1 MOL      0.371671
    102 N10         2.9200    3.2350   -1.0940 n         1 MOL     -0.220374
    103 C34         4.1000    2.5670   -1.7000 c3        1 MOL     -0.406984
    104 C35         5.1440    2.3110   -0.5620 c         1 MOL      0.658016
    105 O15         5.4720    1.1470   -0.3330 o         1 MOL     -0.462017
    106 C36         4.5850    3.4560   -2.8720 c3        1 MOL      0.189848
    107 C37         3.5170    3.9080   -3.9260 c3        1 MOL      0.046134
    108 C38         5.7300    2.7500   -3.5650 c3        1 MOL     -0.445641
    109 C39         3.1000    2.7790   -4.9300 c3        1 MOL     -0.099243
    110 H46         3.0970    4.1120   -0.6410 hn        1 MOL      0.225201
    111 H47         3.7480    1.6130   -2.1060 h1        1 MOL      0.218231
    112 H48         4.9740    4.4100   -2.5220 hc        1 MOL     -0.014577
    113 H49         3.9540    4.7850   -4.4200 hc        1 MOL     -0.012948
    114 H50         2.6270    4.2920   -3.4470 hc        1 MOL     -0.012948
    115 H51         6.0810    3.2450   -4.4660 hc        1 MOL      0.126183
    116 H52         6.4930    2.6410   -2.8010 hc        1 MOL      0.126183
    117 H53         5.4600    1.7930   -4.0080 hc        1 MOL      0.126183
    118 H54         2.6280    1.9160   -4.4590 hc        1 MOL      0.040003
    119 H55         2.3640    3.0820   -5.6860 hc        1 MOL      0.040003
    120 H56         3.9840    2.4360   -5.4730 hc        1 MOL      0.040003
    121 N11         5.3280    3.3130    0.2990 n         1 MOL     -0.570595
    122 C40         5.9280    3.1490    1.7130 c3        1 MOL     -0.042825
    123 C41         7.3900    2.5910    1.7620 c         1 MOL      0.302083
    124 O16         7.8010    2.0070    2.7810 o         1 MOL     -0.437058
    125 C42         5.9380    4.5090    2.4080 c3        1 MOL      0.184961
    126 O17         4.6870    5.0310    2.4690 oh        1 MOL     -0.595813
    127 H57         5.1860    4.2810    0.0380 hn        1 MOL      0.388649
    128 H58         5.4190    2.3790    2.2960 h1        1 MOL      0.127210
    129 H59         6.6260    5.1490    1.8420 h1        1 MOL      0.046310
    130 H60         6.2830    4.3320    3.4280 h1        1 MOL      0.046310
    131 H61         4.2910    4.6150    3.2490 ho        1 MOL      0.418298
    132 N12         8.1720    2.7730    0.6440 n         1 MOL     -0.214091
    133 C43         9.5030    2.2600    0.4800 c3        1 MOL     -0.032350
    134 C44         9.4190    0.7310    0.8130 c         1 MOL      0.665355
    135 O18        10.3140    0.1380    1.3930 o         1 MOL     -0.537101
    136 C45        10.4900    3.1330    1.3180 c3        1 MOL     -0.334640
    137 H62         7.7600    3.3950   -0.0320 hn        1 MOL      0.229384
    138 H63         9.8610    2.3610   -0.5470 h1        1 MOL      0.104619
    139 H64        11.5190    2.7860    1.3880 hc        1 MOL      0.107237
    140 H65        10.4250    4.1820    1.0280 hc        1 MOL      0.107237
    141 H66        10.1820    3.1120    2.3750 hc        1 MOL      0.107237
    142 N13         8.3880    0.0050    0.3350 n         1 MOL     -0.722855
    143 C46         8.1950   -1.4770    0.5270 c3        1 MOL      0.517415
    144 C47         7.7580   -2.1670   -0.7690 c         1 MOL      0.378116
    145 O19         7.2850   -1.5920   -1.7470 o         1 MOL     -0.479589
    146 C48         7.2080   -1.7920    1.6630 c3        1 MOL     -0.368622
    147 H67         7.5480    0.4900    0.0370 hn        1 MOL      0.257190
    148 H68         9.2070   -1.8430    0.7010 h1        1 MOL     -0.026022
    149 H69         6.4030   -1.0740    1.4910 hc        1 MOL      0.100749
    150 H70         7.0700   -2.8750    1.7550 hc        1 MOL      0.100749
    151 H71         7.6100   -1.5680    2.6510 hc        1 MOL      0.100749
    152 N14         7.9260   -3.4720   -0.8350 n         1 MOL     -0.514952
    153 C49         7.5640   -4.3430   -2.0220 c3        1 MOL      0.546187
    154 C50         8.3140   -4.0080   -3.3590 c         1 MOL      0.167869
    155 O20         7.7710   -4.1910   -4.4530 o         1 MOL     -0.472514
    156 C51         6.0250   -4.5940   -2.1890 c3        1 MOL     -0.050902
    157 C52         5.4180   -5.0920   -0.8850 c3        1 MOL     -0.158008
    158 C53         4.0320   -5.8140   -1.0520 c         1 MOL      0.854717
    159 O21         3.7510   -6.7140   -0.2470 o         1 MOL     -0.748883
    160 O22         3.2180   -5.3350   -1.9400 o         1 MOL     -0.748883
    161 H72         8.3130   -3.9920   -0.0510 hn        1 MOL      0.246759
    162 H73         7.9910   -5.3040   -1.7440 h1        1 MOL     -0.050742
    163 H74         5.8210   -5.3500   -2.9520 hc        1 MOL      0.002593
    164 H75         5.5040   -3.6600   -2.4220 hc        1 MOL      0.002593
    165 H76         5.2850   -4.2240   -0.2420 hc        1 MOL     -0.018664
    166 H77         6.1900   -5.7310   -0.4540 hc        1 MOL     -0.018664
    167 N15         9.5120   -3.4730   -3.3380 n         1 MOL     -0.164583
    168 C54        10.1910   -2.8130   -4.4860 c3        1 MOL     -0.050134
    169 H78        11.1930   -3.2250   -4.6000 h1        1 MOL      0.064306
    170 H79         9.6190   -2.9890   -5.3970 h1        1 MOL      0.064306
    171 H80        10.2590   -1.7410   -4.3000 h1        1 MOL      0.064306
    172 H81         9.9680   -3.5930   -2.4360 hn        1 MOL      0.160245
    173 Ca1         0.5690   -2.6630    0.7270 Ca        1 MOL      1.843102
    174 O23         2.6980   -2.8410   -0.7980 oh        1 MOL     -0.878571
    175 H82         2.8370   -3.5930   -1.3740 ho        1 MOL      0.426050
    176 H83         3.3660   -2.2160   -1.0620 ho        1 MOL      0.426050
    177 O24         2.5270   -4.1200    2.0460 oh        1 MOL     -0.878571
    178 H84         2.0950   -4.8420    2.4930 ho        1 MOL      0.426050
    179 H85         3.4600   -4.3420    2.0610 ho        1 MOL      0.426050
    180 O25         0.8510   -5.0460   -0.6310 oh        1 MOL     -0.878571
    181 H86         0.2890   -5.6790   -1.0620 ho        1 MOL      0.426050
    182 H87         1.7250   -5.2230   -0.9800 ho        1 MOL      0.426050
    183 O26         2.1240   -0.2900    0.4880 oh        1 MOL     -0.878571
    184 H88         2.7250   -0.3530    1.2290 ho        1 MOL      0.426050
    185 H89         2.2350    0.5990    0.1590 ho        1 MOL      0.426050
    186 O27        -0.0540   -1.0740   -1.2900 oh        1 MOL     -0.878571
    187 H90         0.1000   -0.1400   -1.3730 ho        1 MOL      0.426050
    188 H91        -0.8440   -1.2400   -1.8210 ho        1 MOL      0.426050
    189 O28        -0.4510   -4.3980    2.4440 oh        1 MOL     -0.878571
    190 H92        -1.0360   -5.0530    2.0630 ho        1 MOL      0.426050
    191 H93        -0.4450   -4.6020    3.3780 ho        1 MOL      0.426050
@<TRIPOS>BOND
     1    1    2 1   
     2    1    4 1   
     3    1    5 1   
     4    1    6 1   
     5    2    3 2   
     6    2    7 1   
     7    7    8 1   
     8    7   15 1   
     9    8    9 1   
    10    8   11 1   
    11    8   16 1   
    12    9   10 2   
    13    9   19 1   
    14   11   12 1   
    15   11   17 1   
    16   11   18 1   
    17   12   13 1   
    18   12   14 1   
    19   19   20 1   
    20   19   28 1   
    21   20   21 1   
    22   20   23 1   
    23   20   29 1   
    24   21   22 2   
    25   21   41 1   
    26   23   24 1   
    27   23   30 1   
    28   23   31 1   
    29   24   25 1   
    30   24   32 1   
    31   24   33 1   
    32   25   26 1   
    33   25   34 1   
    34   25   35 1   
    35   26   27 1   
    36   26   36 1   
    37   26   37 1   
    38   27   38 1   
    39   27   39 1   
    40   27   40 1   
    41   41   42 1   
    42   41   49 1   
    43   42   43 1   
    44   42   45 1   
    45   42   50 1   
    46   43   44 2   
    47   43   53 1   
    48   45   46 1   
    49   45   51 1   
    50   45   52 1   
    51   46   47 1   
    52   46   48 1   
    53   53   54 1   
    54   53   57 1   
    55   54   55 1   
    56   54   58 1   
    57   54   59 1   
    58   55   56 2   
    59   55   60 1   
    60   60   61 1   
    61   60   68 1   
    62   61   62 1   
    63   61   64 1   
    64   61   69 1   
    65   62   63 2   
    66   62   74 1   
    67   64   65 1   
    68   64   70 1   
    69   64   71 1   
    70   65   66 1   
    71   65   67 2   
    72   66   72 1   
    73   66   73 1   
    74   74   75 1   
    75   74   78 1   
    76   75   76 1   
    77   75   79 1   
    78   75   80 1   
    79   76   77 2   
    80   76   81 1   
    81   81   82 1   
    82   81   93 1   
    83   82   83 1   
    84   82   85 1   
    85   82   94 1   
    86   83   84 2   
    87   83  102 1   
    88   85   86 1   
    89   85   95 1   
    90   85   96 1   
    91   86   87 ar  
    92   86   88 ar  
    93   87   89 ar  
    94   87   97 1   
    95   88   90 ar  
    96   88   98 1   
    97   89   91 ar  
    98   89   99 1   
    99   90   91 ar  
   100   90  100 1   
   101   91   92 1   
   102   92  101 1   
   103  102  103 1   
   104  102  110 1   
   105  103  104 1   
   106  103  106 1   
   107  103  111 1   
   108  104  105 2   
   109  104  121 1   
   110  106  107 1   
   111  106  108 1   
   112  106  112 1   
   113  107  109 1   
   114  107  113 1   
   115  107  114 1   
   116  108  115 1   
   117  108  116 1   
   118  108  117 1   
   119  109  118 1   
   120  109  119 1   
   121  109  120 1   
   122  121  122 1   
   123  121  127 1   
   124  122  123 1   
   125  122  125 1   
   126  122  128 1   
   127  123  124 2   
   128  123  132 1   
   129  125  126 1   
   130  125  129 1   
   131  125  130 1   
   132  126  131 1   
   133  132  133 1   
   134  132  137 1   
   135  133  134 1   
   136  133  136 1   
   137  133  138 1   
   138  134  135 2   
   139  134  142 1   
   140  136  139 1   
   141  136  140 1   
   142  136  141 1   
   143  142  143 1   
   144  142  147 1   
   145  143  144 1   
   146  143  146 1   
   147  143  148 1   
   148  144  145 2   
   149  144  152 1   
   150  146  149 1   
   151  146  150 1   
   152  146  151 1   
   153  152  153 1   
   154  152  161 1   
   155  153  154 1   
   156  153  156 1   
   157  153  162 1   
   158  154  155 2   
   159  154  167 1   
   160  156  157 1   
   161  156  163 1   
   162  156  164 1   
   163  157  158 1   
   164  157  165 1   
   165  157  166 1   
   166  158  159 1   
   167  158  160 1   
   168  167  168 1   
   169  167  172 1   
   170  168  169 1   
   171  168  170 1   
   172  168  171 1   
   173  174  175 1   
   174  174  176 1   
   175  177  178 1   
   176  177  179 1   
   177  180  181 1   
   178  180  182 1   
   179  183  184 1   
   180  183  185 1   
   181  186  187 1   
   182  186  188 1   
   183  189  190 1   
   184  189  191 1   
@<TRIPOS>SUBSTRUCTURE
     1 MOL         1 TEMP              0 ****  ****    0 ROOT
