@<TRIPOS>MOLECULE
MOL
  189   185     1     0     0
SMALL
resp


@<TRIPOS>ATOM
      1 C1          4.6710    3.7540   -4.1470 c3        1 MOL     -0.525595
      2 C2          5.2370    2.9430   -3.0030 c         1 MOL      0.951555
      3 O1          4.6070    2.7920   -1.9550 o         1 MOL     -0.716053
      4 H1          5.0130    3.3340   -5.0930 hc        1 MOL      0.131503
      5 H2          3.5820    3.7240   -4.1090 hc        1 MOL      0.131503
      6 H3          5.0100    4.7860   -4.0640 hc        1 MOL      0.131503
      7 N1          6.4080    2.3320   -3.1890 n         1 MOL     -0.869380
      8 C3          7.1230    1.2940   -2.4010 c3        1 MOL      0.419265
      9 C4          6.2310    0.1600   -1.8910 c         1 MOL      0.233507
     10 O2          5.8670    0.1950   -0.7280 o         1 MOL     -0.506356
     11 C5          8.0480    1.8990   -1.3420 c3        1 MOL     -0.148621
     12 C6          7.5520    3.1410   -0.7140 c         1 MOL      0.819361
     13 O3          6.5490    3.0940   -0.0030 o         1 MOL     -0.752057
     14 O4          8.0950    4.2100   -1.0380 o         1 MOL     -0.752057
     15 H4          6.9750    2.7690   -3.9070 hn        1 MOL      0.358260
     16 H5          7.7690    0.7330   -3.0730 h1        1 MOL     -0.006328
     17 H6          8.9710    2.1260   -1.8750 hc        1 MOL      0.012164
     18 H7          8.3970    1.2240   -0.5650 hc        1 MOL      0.012164
     19 N2          5.9230   -0.7500   -2.7440 n         1 MOL     -0.328341
     20 C7          5.3060   -2.0650   -2.5190 c3        1 MOL      0.088931
     21 C8          6.0010   -3.0080   -1.5290 c         1 MOL      0.439537
     22 O5          6.4120   -4.0680   -1.9950 o         1 MOL     -0.571389
     23 C9          3.7930   -1.8440   -2.0930 c3        1 MOL      0.306086
     24 C10         3.0530   -3.1520   -2.1000 c3        1 MOL     -0.078958
     25 C11         3.1300   -0.8120   -3.0040 c3        1 MOL     -0.172302
     26 C12         3.1050   -4.0720   -3.3420 c3        1 MOL     -0.308180
     27 H8          6.3860   -0.6120   -3.6330 hn        1 MOL      0.257520
     28 H9          5.2970   -2.5280   -3.5070 h1        1 MOL      0.021798
     29 H10         3.7200   -1.3870   -1.1140 hc        1 MOL     -0.145206
     30 H11         1.9850   -2.9960   -1.9620 hc        1 MOL      0.062465
     31 H12         3.4750   -3.7640   -1.3090 hc        1 MOL      0.062465
     32 H13         2.1170   -0.5330   -2.7280 hc        1 MOL      0.018783
     33 H14         3.6330    0.1660   -3.0710 hc        1 MOL      0.018783
     34 H15         3.1420   -1.2680   -3.9900 hc        1 MOL      0.018783
     35 H16         2.6360   -5.0510   -3.2240 hc        1 MOL      0.064456
     36 H17         2.7700   -3.4610   -4.1690 hc        1 MOL      0.064456
     37 H18         4.1460   -4.3600   -3.5070 hc        1 MOL      0.064456
     38 N3          6.3090   -2.5830   -0.3140 n         1 MOL     -0.195531
     39 C13         7.1110   -3.3720    0.5700 c3        1 MOL      0.159165
     40 C14         6.3480   -4.5000    1.1610 c         1 MOL      0.502870
     41 O6          6.8200   -5.6110    1.3060 o         1 MOL     -0.604074
     42 C15         7.6650   -2.3650    1.6320 c3        1 MOL     -0.210608
     43 C16         8.6400   -1.2470    1.2360 c         1 MOL      0.688323
     44 O7          9.2340   -1.3680    0.1350 o         1 MOL     -0.709153
     45 O8          8.9720   -0.2980    2.0340 o         1 MOL     -0.709153
     46 H19         6.1220   -1.6320   -0.0110 hn        1 MOL      0.208277
     47 H20         7.9120   -3.8000   -0.0310 h1        1 MOL      0.027985
     48 H21         8.0590   -2.9020    2.4850 hc        1 MOL      0.061381
     49 H22         6.8080   -1.8200    2.0250 hc        1 MOL      0.061381
     50 N4          5.1380   -4.4010    1.6490 n         1 MOL     -0.406115
     51 C17         4.2700   -3.2290    1.9300 c3        1 MOL     -0.031269
     52 C18         4.4720   -2.6690    3.3650 c         1 MOL      0.560031
     53 O9          5.4780   -2.9410    3.9270 o         1 MOL     -0.537522
     54 H23         4.6490   -5.2390    1.9470 hn        1 MOL      0.276479
     55 H24         3.2210   -3.4970    1.7880 h1        1 MOL      0.030819
     56 H25         4.4490   -2.3790    1.2750 h1        1 MOL      0.030819
     57 N5          3.5260   -1.8710    3.9260 n         1 MOL     -0.512209
     58 C19         2.2000   -1.4730    3.4540 c3        1 MOL      0.193381
     59 C20         2.1880   -0.6410    2.1700 c         1 MOL      0.334250
     60 O10         3.2080   -0.0520    1.8270 o         1 MOL     -0.390758
     61 C21         1.4820   -0.7130    4.5950 c3        1 MOL     -0.419587
     62 C22         2.4450    0.2540    5.2980 c         1 MOL      0.810115
     63 O11         2.2150    1.4560    5.1200 o         1 MOL     -0.692153
     64 O12         3.4310   -0.1370    5.9610 o         1 MOL     -0.692153
     65 H26         3.7970   -1.4970    4.8230 hn        1 MOL      0.304340
     66 H27         1.7610   -2.4340    3.1850 h1        1 MOL      0.014104
     67 H28         1.0960   -1.4490    5.3120 hc        1 MOL      0.084040
     68 H29         0.5880   -0.2150    4.2160 hc        1 MOL      0.084040
     69 N6          1.0700   -0.4120    1.5100 n         1 MOL     -0.379656
     70 C23        -0.2350   -1.0480    1.7050 c3        1 MOL      0.020484
     71 C24        -0.4790   -2.3800    1.0330 c         1 MOL      0.678905
     72 O13         0.4290   -2.9630    0.4200 o         1 MOL     -0.566530
     73 H30         1.2350    0.1430    0.6850 hn        1 MOL      0.233837
     74 H31        -0.9600   -0.3820    1.2340 h1        1 MOL      0.060142
     75 H32        -0.4950   -1.1900    2.7570 h1        1 MOL      0.060142
     76 N7         -1.6950   -2.9810    1.1960 n         1 MOL     -0.495930
     77 C25        -1.9830   -4.3230    0.7340 c3        1 MOL     -0.001694
     78 C26        -2.5280   -4.3570   -0.7950 c         1 MOL      0.342244
     79 O14        -2.7010   -5.4480   -1.3810 o         1 MOL     -0.516213
     80 C27        -2.9830   -4.9550    1.6820 c3        1 MOL     -0.009652
     81 C28        -4.2430   -4.2520    2.1860 c3        1 MOL     -0.070955
     82 C29        -5.2050   -4.0090    1.0440 c         1 MOL      0.348386
     83 N8         -6.0930   -4.9200    0.7000 n         1 MOL     -0.480596
     84 O15        -5.2290   -2.9670    0.3980 o         1 MOL     -0.569526
     85 H33        -2.4300   -2.3910    1.5820 hn        1 MOL      0.243253
     86 H34        -1.0560   -4.9030    0.7280 h1        1 MOL      0.138929
     87 H35        -2.4290   -5.1700    2.5930 hc        1 MOL      0.027049
     88 H36        -3.3040   -5.9000    1.2700 hc        1 MOL      0.027049
     89 H37        -3.9730   -3.3470    2.7210 hc        1 MOL      0.065086
     90 H38        -4.7120   -4.8090    3.0030 hc        1 MOL      0.065086
     91 H39        -6.2200   -5.6840    1.3600 hn        1 MOL      0.273718
     92 H40        -6.7980   -4.7200    0.0090 hn        1 MOL      0.273718
     93 N9         -2.8910   -3.1870   -1.3660 n         1 MOL      0.053476
     94 C30        -3.2010   -2.9750   -2.8030 c3        1 MOL     -0.185333
     95 C31        -4.4440   -2.2070   -3.0080 c         1 MOL      0.388617
     96 O16        -4.8960   -2.0160   -4.1930 o         1 MOL     -0.559130
     97 C32        -2.0640   -2.3850   -3.5770 c3        1 MOL      0.329099
     98 C33        -0.7400   -3.1470   -3.4900 c3        1 MOL     -0.300114
     99 C34        -1.6980   -0.9630   -3.0380 c3        1 MOL     -0.300114
    100 H41        -2.6140   -2.3340   -0.9020 hn        1 MOL      0.081116
    101 H42        -3.3890   -3.9220   -3.3070 h1        1 MOL      0.118122
    102 H43        -2.3290   -2.3190   -4.6330 hc        1 MOL     -0.009115
    103 H44        -0.9660   -4.1990   -3.6190 hc        1 MOL      0.067062
    104 H45        -0.0930   -2.7670   -4.2870 hc        1 MOL      0.067062
    105 H46        -0.3140   -2.9370   -2.5050 hc        1 MOL      0.067062
    106 H47        -1.4040   -0.9560   -1.9910 hc        1 MOL      0.067062
    107 H48        -0.9260   -0.4980   -3.6490 hc        1 MOL      0.067062
    108 H49        -2.5830   -0.3330   -3.1260 hc        1 MOL      0.067062
    109 N10        -5.1770   -1.7490   -1.9480 n         1 MOL     -0.237433
    110 C35        -6.5490   -1.2290   -2.1160 c3        1 MOL     -0.047587
    111 C36        -6.7710    0.2040   -1.4950 c         1 MOL      0.590128
    112 O17        -7.7630    0.7810   -1.9140 o         1 MOL     -0.559845
    113 C37        -7.6690   -2.2090   -1.6950 c3        1 MOL     -0.199292
    114 C38        -7.7110   -3.6270   -2.2360 c         1 MOL      0.651334
    115 N11        -7.6500   -3.8640   -3.5260 n         1 MOL     -0.783326
    116 O18        -7.9680   -4.6240   -1.5300 o         1 MOL     -0.566127
    117 H50        -4.8400   -1.8660   -1.0050 hn        1 MOL      0.333592
    118 H51        -6.7560   -1.0790   -3.1740 h1        1 MOL      0.077722
    119 H52        -8.6390   -1.7140   -1.7520 hc        1 MOL      0.081190
    120 H53        -7.6050   -2.3110   -0.6150 hc        1 MOL      0.081190
    121 H54        -7.3800   -3.1120   -4.1550 hn        1 MOL      0.379387
    122 H55        -7.6250   -4.8300   -3.8060 hn        1 MOL      0.379387
    123 N12        -5.8500    0.7100   -0.6810 n         1 MOL     -0.405424
    124 C39        -5.9600    1.9860    0.0720 c3        1 MOL      0.175701
    125 C40        -4.6540    2.7910    0.1050 c         1 MOL      0.609355
    126 O19        -3.5490    2.2600    0.0160 o         1 MOL     -0.484047
    127 C41        -6.4250    1.7620    1.5350 c3        1 MOL     -0.185544
    128 C42        -7.5940    0.7760    1.7450 ca        1 MOL      0.062689
    129 C43        -7.2820   -0.6090    1.6580 ca        1 MOL     -0.156671
    130 C44        -8.8790    1.1980    2.1420 ca        1 MOL     -0.156671
    131 C45        -8.2800   -1.5190    1.8760 ca        1 MOL     -0.184787
    132 C46        -9.8090    0.2140    2.4270 ca        1 MOL     -0.184787
    133 C47        -9.5710   -1.1350    2.2150 ca        1 MOL      0.269371
    134 O20       -10.6780   -1.9980    2.1010 oh        1 MOL     -0.528212
    135 H56        -4.9860    0.1920   -0.6840 hn        1 MOL      0.121912
    136 H57        -6.5860    2.6720   -0.4950 h1        1 MOL      0.002560
    137 H58        -6.8300    2.6500    2.0200 hc        1 MOL      0.100666
    138 H59        -5.5500    1.4420    2.1000 hc        1 MOL      0.100666
    139 H60        -6.3200   -0.9310    1.2910 ha        1 MOL      0.140667
    140 H61        -9.0920    2.2590    2.1730 ha        1 MOL      0.140667
    141 H62        -7.9440   -2.5410    1.8000 ha        1 MOL      0.116259
    142 H63       -10.8060    0.5470    2.6900 ha        1 MOL      0.116259
    143 H64       -10.4570   -2.7010    1.4900 ho        1 MOL      0.372430
    144 N13        -4.7570    4.1130    0.3970 n         1 MOL     -0.678357
    145 C48        -3.7030    5.0830    0.7120 c3        1 MOL      0.031867
    146 C49        -2.3730    5.1450   -0.1030 c         1 MOL      0.257071
    147 O21        -1.5440    5.9820    0.2150 o         1 MOL     -0.470670
    148 C50        -3.5450    4.9380    2.2750 c3        1 MOL      0.108553
    149 C51        -4.8180    5.2570    3.0700 c3        1 MOL     -0.180719
    150 C52        -4.4090    5.1530    4.4800 c         1 MOL      0.651902
    151 O22        -4.0880    6.2150    5.1060 o         1 MOL     -0.717909
    152 O23        -4.3350    3.9650    4.9440 o         1 MOL     -0.717909
    153 H65        -5.6970    4.4490    0.5000 hn        1 MOL      0.348192
    154 H66        -4.0820    6.0970    0.5690 h1        1 MOL      0.086217
    155 H67        -2.7790    5.6570    2.5480 hc        1 MOL      0.045019
    156 H68        -3.1830    3.9140    2.4330 hc        1 MOL      0.045019
    157 H69        -5.5800    4.4980    2.9100 hc        1 MOL     -0.006577
    158 H70        -5.3290    6.1920    2.8100 hc        1 MOL     -0.006577
    159 N14        -2.1870    4.2630   -1.0660 n         1 MOL     -0.034899
    160 C53        -1.0940    4.2440   -2.0370 c3        1 MOL     -0.043049
    161 C54        -1.4960    5.0300   -3.3190 c         1 MOL      0.455977
    162 O24        -0.6160    5.6700   -3.9910 o         1 MOL     -0.525943
    163 C55        -0.6470    2.8390   -2.4110 c3        1 MOL     -0.120128
    164 C56        -0.1310    1.8930   -1.3370 c3        1 MOL      0.421604
    165 C57         1.2960    2.2350   -0.8190 c         1 MOL      0.511585
    166 O25         2.0540    1.2700   -0.6600 o         1 MOL     -0.623285
    167 O26         1.5990    3.3540   -0.4090 o         1 MOL     -0.623285
    168 H71        -2.9650    3.6180   -1.1130 hn        1 MOL      0.089295
    169 H72        -0.2220    4.7150   -1.5780 h1        1 MOL      0.096512
    170 H73         0.1670    2.9900   -3.1210 hc        1 MOL      0.008208
    171 H74        -1.4540    2.3650   -2.9730 hc        1 MOL      0.008208
    172 H75        -0.2100    0.8740   -1.7180 hc        1 MOL     -0.124552
    173 H76        -0.8010    1.9050   -0.4820 hc        1 MOL     -0.124552
    174 N15        -2.8020    5.0540   -3.6290 n         1 MOL     -0.263354
    175 C58        -3.2850    5.8390   -4.7560 c3        1 MOL     -0.322493
    176 H77        -2.9360    5.3920   -5.6860 h1        1 MOL      0.124471
    177 H78        -4.3750    5.8550   -4.7480 h1        1 MOL      0.124471
    178 H79        -2.9060    6.8590   -4.6790 h1        1 MOL      0.124471
    179 H80        -3.4530    4.4720   -3.1300 hn        1 MOL      0.255695
    180 Ca1         4.2280    1.9700    0.4770 Ca        1 MOL      1.749294
    181 O27         2.8560    2.6990    2.7220 oh        1 MOL     -0.845622
    182 H81         2.1160    3.2370    2.4590 ho        1 MOL      0.406308
    183 H82         2.5880    2.3060    3.5480 ho        1 MOL      0.406308
    184 O28         4.4270    4.8360    0.5520 oh        1 MOL     -0.845622
    185 H83         3.6310    5.3320    0.3330 ho        1 MOL      0.406308
    186 H84         5.0680    5.1040   -0.1100 ho        1 MOL      0.406308
    187 O29         6.1350    1.1020    2.2660 oh        1 MOL     -0.845622
    188 H85         6.0500    0.5060    3.0210 ho        1 MOL      0.406308
    189 H86         6.9740    1.5350    2.4070 ho        1 MOL      0.406308
@<TRIPOS>BOND
     1    1    2 1   
     2    1    4 1   
     3    1    5 1   
     4    1    6 1   
     5    2    3 2   
     6    2    7 1   
     7    7    8 1   
     8    7   15 1   
     9    8    9 1   
    10    8   11 1   
    11    8   16 1   
    12    9   10 2   
    13    9   19 1   
    14   11   12 1   
    15   11   17 1   
    16   11   18 1   
    17   12   13 1   
    18   12   14 1   
    19   19   20 1   
    20   19   27 1   
    21   20   21 1   
    22   20   23 1   
    23   20   28 1   
    24   21   22 2   
    25   21   38 1   
    26   23   24 1   
    27   23   25 1   
    28   23   29 1   
    29   24   26 1   
    30   24   30 1   
    31   24   31 1   
    32   25   32 1   
    33   25   33 1   
    34   25   34 1   
    35   26   35 1   
    36   26   36 1   
    37   26   37 1   
    38   38   39 1   
    39   38   46 1   
    40   39   40 1   
    41   39   42 1   
    42   39   47 1   
    43   40   41 2   
    44   40   50 1   
    45   42   43 1   
    46   42   48 1   
    47   42   49 1   
    48   43   44 1   
    49   43   45 1   
    50   50   51 1   
    51   50   54 1   
    52   51   52 1   
    53   51   55 1   
    54   51   56 1   
    55   52   53 2   
    56   52   57 1   
    57   57   58 1   
    58   57   65 1   
    59   58   59 1   
    60   58   61 1   
    61   58   66 1   
    62   59   60 2   
    63   59   69 1   
    64   61   62 1   
    65   61   67 1   
    66   61   68 1   
    67   62   63 1   
    68   62   64 1   
    69   69   70 1   
    70   69   73 1   
    71   70   71 1   
    72   70   74 1   
    73   70   75 1   
    74   71   72 2   
    75   71   76 1   
    76   76   77 1   
    77   76   85 1   
    78   77   78 1   
    79   77   80 1   
    80   77   86 1   
    81   78   79 2   
    82   78   93 1   
    83   80   81 1   
    84   80   87 1   
    85   80   88 1   
    86   81   82 1   
    87   81   89 1   
    88   81   90 1   
    89   82   83 1   
    90   82   84 2   
    91   83   91 1   
    92   83   92 1   
    93   93   94 1   
    94   93  100 1   
    95   94   95 1   
    96   94   97 1   
    97   94  101 1   
    98   95   96 2   
    99   95  109 1   
   100   97   98 1   
   101   97   99 1   
   102   97  102 1   
   103   98  103 1   
   104   98  104 1   
   105   98  105 1   
   106   99  106 1   
   107   99  107 1   
   108   99  108 1   
   109  109  110 1   
   110  109  117 1   
   111  110  111 1   
   112  110  113 1   
   113  110  118 1   
   114  111  112 2   
   115  111  123 1   
   116  113  114 1   
   117  113  119 1   
   118  113  120 1   
   119  114  115 1   
   120  114  116 2   
   121  115  121 1   
   122  115  122 1   
   123  123  124 1   
   124  123  135 1   
   125  124  125 1   
   126  124  127 1   
   127  124  136 1   
   128  125  126 2   
   129  125  144 1   
   130  127  128 1   
   131  127  137 1   
   132  127  138 1   
   133  128  129 ar  
   134  128  130 ar  
   135  129  131 ar  
   136  129  139 1   
   137  130  132 ar  
   138  130  140 1   
   139  131  133 ar  
   140  131  141 1   
   141  132  133 ar  
   142  132  142 1   
   143  133  134 1   
   144  134  143 1   
   145  144  145 1   
   146  144  153 1   
   147  145  146 1   
   148  145  148 1   
   149  145  154 1   
   150  146  147 2   
   151  146  159 1   
   152  148  149 1   
   153  148  155 1   
   154  148  156 1   
   155  149  150 1   
   156  149  157 1   
   157  149  158 1   
   158  150  151 1   
   159  150  152 1   
   160  159  160 1   
   161  159  168 1   
   162  160  161 1   
   163  160  163 1   
   164  160  169 1   
   165  161  162 2   
   166  161  174 1   
   167  163  164 1   
   168  163  170 1   
   169  163  171 1   
   170  164  165 1   
   171  164  172 1   
   172  164  173 1   
   173  165  166 1   
   174  165  167 1   
   175  174  175 1   
   176  174  179 1   
   177  175  176 1   
   178  175  177 1   
   179  175  178 1   
   180  181  182 1   
   181  181  183 1   
   182  184  185 1   
   183  184  186 1   
   184  187  188 1   
   185  187  189 1   
@<TRIPOS>SUBSTRUCTURE
     1 MOL         1 TEMP              0 ****  ****    0 ROOT
