@<TRIPOS>MOLECULE
MOL
  181   177     1     0     0
SMALL
resp


@<TRIPOS>ATOM
      1 C1         -3.5040   -1.6970   -4.1400 c3        1 MOL     -0.434366
      2 C2         -4.7960   -1.2480   -3.3700 c         1 MOL      0.628737
      3 O1         -4.8600   -0.1440   -2.8650 o         1 MOL     -0.559973
      4 H1         -3.7760   -2.4020   -4.9250 hc        1 MOL      0.110646
      5 H2         -3.0250   -0.8250   -4.5850 hc        1 MOL      0.110646
      6 H3         -2.8140   -2.1760   -3.4450 hc        1 MOL      0.110646
      7 N1         -5.7340   -2.1560   -3.2200 n         1 MOL     -0.417388
      8 C3         -7.0250   -1.8960   -2.6300 c3        1 MOL      0.001113
      9 C4         -6.8410   -1.6060   -1.1130 c         1 MOL      0.662300
     10 O2         -6.1410   -2.3880   -0.4710 o         1 MOL     -0.519411
     11 C5         -8.0010   -3.0820   -2.7230 c3        1 MOL     -0.091252
     12 C6         -9.4570   -2.7000   -2.2930 c         1 MOL      0.642707
     13 O3        -10.0060   -3.5100   -1.4420 o         1 MOL     -0.703479
     14 O4        -10.0550   -1.7110   -2.8210 o         1 MOL     -0.703479
     15 H4         -5.4800   -3.0930   -3.4920 hn        1 MOL      0.243218
     16 H5         -7.4670   -1.0390   -3.1280 h1        1 MOL      0.047071
     17 H6         -7.6210   -3.9340   -2.1670 hc        1 MOL     -0.000889
     18 H7         -8.0650   -3.3280   -3.7870 hc        1 MOL     -0.000889
     19 N2         -7.5310   -0.5440   -0.6040 n         1 MOL     -0.603337
     20 C7         -7.6320   -0.1860    0.8400 c3        1 MOL      0.314422
     21 C8         -6.2490    0.3460    1.3470 c         1 MOL      0.406001
     22 O5         -5.7990    1.3680    0.8730 o         1 MOL     -0.524652
     23 C9         -8.7830    0.7090    1.1120 c3        1 MOL     -0.337534
     24 H8         -8.1080    0.0860   -1.1340 hn        1 MOL      0.333816
     25 H9         -7.7670   -1.0960    1.4080 h1        1 MOL      0.038150
     26 H10        -8.5870    1.6760    0.6500 hc        1 MOL      0.090035
     27 H11        -9.6660    0.3170    0.5910 hc        1 MOL      0.090035
     28 H12        -9.1170    0.7110    2.1470 hc        1 MOL      0.090035
     29 N3         -5.6360   -0.3410    2.2890 n         1 MOL     -0.520262
     30 C10        -4.2050   -0.1170    2.8450 c3        1 MOL      0.043898
     31 C11        -4.0360    1.1250    3.7210 c         1 MOL      0.496918
     32 O6         -3.0740    1.2670    4.4800 o         1 MOL     -0.492495
     33 C12        -3.7330   -1.3270    3.5660 c3        1 MOL     -0.401578
     34 C13        -3.6930   -2.6630    2.8360 c         1 MOL      0.976944
     35 O7         -4.7610   -3.3450    2.9060 o         1 MOL     -0.787940
     36 O8         -2.7080   -3.2110    2.3830 o         1 MOL     -0.787940
     37 H13        -6.1200   -1.1750    2.5770 hn        1 MOL      0.296777
     38 H14        -3.5300   -0.0900    1.9950 h1        1 MOL      0.143178
     39 H15        -4.4130   -1.5310    4.3850 hc        1 MOL      0.089605
     40 H16        -2.6980   -1.1980    3.8670 hc        1 MOL      0.089605
     41 N4         -4.9120    2.1360    3.6220 n         1 MOL     -0.299645
     42 C14        -4.8800    3.3010    4.5050 c3        1 MOL     -0.046914
     43 C15        -3.6690    4.2440    4.4020 c         1 MOL      0.391817
     44 O9         -3.3810    5.0030    5.3550 o         1 MOL     -0.528048
     45 H17        -5.6730    2.0000    2.9710 hn        1 MOL      0.250089
     46 H18        -4.9900    2.9890    5.5450 h1        1 MOL      0.079236
     47 H19        -5.7830    3.8940    4.3870 h1        1 MOL      0.079236
     48 N5         -2.8790    4.1710    3.3480 n         1 MOL     -0.222873
     49 C16        -1.6190    4.9260    3.1480 c3        1 MOL     -0.046095
     50 C17        -1.4660    5.3510    1.6270 c         1 MOL      0.536232
     51 O10        -1.6730    4.5140    0.7330 o         1 MOL     -0.447160
     52 C18        -0.4090    4.0280    3.5310 c3        1 MOL     -0.100992
     53 C19        -0.0800    3.6380    5.0250 c         1 MOL      0.710315
     54 N6         -0.4580    2.4090    5.4170 n         1 MOL     -0.840501
     55 O11         0.4330    4.4360    5.7630 o         1 MOL     -0.591445
     56 H20        -3.0970    3.6480    2.5220 hn        1 MOL      0.186397
     57 H21        -1.5060    5.8470    3.7140 h1        1 MOL      0.068924
     58 H22         0.5420    4.4260    3.1900 hc        1 MOL      0.035915
     59 H23        -0.5090    3.0910    2.9750 hc        1 MOL      0.035915
     60 H24        -1.1760    1.9440    4.8740 hn        1 MOL      0.375965
     61 H25        -0.4310    2.3190    6.4140 hn        1 MOL      0.375965
     62 N7         -1.2530    6.6560    1.3800 n         1 MOL     -0.552750
     63 C20        -0.8850    7.0540    0.0300 c3        1 MOL      0.119240
     64 C21         0.5520    6.8720   -0.5010 c         1 MOL      0.521244
     65 O12         1.3510    6.5340    0.2790 o         1 MOL     -0.472065
     66 H26        -1.1300    7.3010    2.1510 hn        1 MOL      0.334800
     67 H27        -1.2480    8.0690   -0.1690 h1        1 MOL      0.026590
     68 H28        -1.5200    6.4160   -0.5740 h1        1 MOL      0.026590
     69 N8          0.7960    7.1400   -1.7920 n         1 MOL     -0.451149
     70 C22         2.1830    7.0260   -2.3850 c3        1 MOL     -0.167015
     71 C23         2.7990    5.7330   -2.7300 c         1 MOL      0.507843
     72 O13         4.0170    5.7080   -2.9440 o         1 MOL     -0.573375
     73 C24         2.2820    7.9670   -3.5970 c3        1 MOL      0.530269
     74 C25         1.5080    7.4660   -4.8260 c3        1 MOL     -0.354010
     75 O14         1.7660    9.2320   -3.1830 oh        1 MOL     -0.661787
     76 H29        -0.0140    7.4630   -2.3060 hn        1 MOL      0.238160
     77 H30         2.8600    7.4110   -1.6230 h1        1 MOL      0.137081
     78 H31         3.3320    8.0140   -3.8760 h1        1 MOL      0.008602
     79 H32         0.8140    9.1470   -3.2050 ho        1 MOL      0.383019
     80 H33         1.5840    8.1500   -5.6690 hc        1 MOL      0.075572
     81 H34         1.8510    6.4450   -4.9410 hc        1 MOL      0.075572
     82 H35         0.4710    7.3590   -4.4980 hc        1 MOL      0.075572
     83 N9          2.0910    4.6160   -2.7750 n         1 MOL     -0.190114
     84 C26         2.6590    3.2450   -2.8780 c3        1 MOL     -0.078799
     85 C27         1.8700    2.2440   -2.0150 c         1 MOL      0.473117
     86 O15         0.7240    2.4950   -1.6540 o         1 MOL     -0.502896
     87 C28         2.6480    2.6310   -4.3450 c3        1 MOL      0.193678
     88 C29         1.2970    2.7230   -5.0560 c3        1 MOL      0.194483
     89 C30         3.7630    3.2980   -5.1050 c3        1 MOL     -0.487017
     90 C31         1.0490    1.5980   -6.0670 c3        1 MOL     -0.279819
     91 H36         1.1010    4.7600   -2.6740 hn        1 MOL      0.175021
     92 H37         3.6590    3.2940   -2.4640 h1        1 MOL      0.087738
     93 H38         2.9440    1.5950   -4.2110 hc        1 MOL     -0.006344
     94 H39         1.1790    3.7060   -5.5100 hc        1 MOL     -0.020149
     95 H40         0.4780    2.7290   -4.3280 hc        1 MOL     -0.020149
     96 H41         4.7060    3.2310   -4.5700 hc        1 MOL      0.112915
     97 H42         4.0040    2.7620   -6.0170 hc        1 MOL      0.112915
     98 H43         3.4530    4.3460   -5.1300 hc        1 MOL      0.112915
     99 H44         1.3030    0.6510   -5.5810 hc        1 MOL      0.059431
    100 H45        -0.0210    1.5490   -6.2830 hc        1 MOL      0.059431
    101 H46         1.6040    1.7480   -6.9950 hc        1 MOL      0.059431
    102 N10         2.4920    1.1560   -1.7330 n         1 MOL     -0.473398
    103 C32         2.0470    0.0310   -0.9080 c3        1 MOL      0.278861
    104 C33         3.0190   -0.5860    0.1620 c         1 MOL      0.407839
    105 O16         3.0670   -1.7700    0.5070 o         1 MOL     -0.386708
    106 C34         1.4360   -0.9650   -1.8880 c3        1 MOL     -0.226976
    107 C35         0.1950   -1.5830   -1.2590 c         1 MOL      0.732135
    108 O17        -0.2910   -2.5980   -1.8390 o         1 MOL     -0.752043
    109 O18        -0.2600   -1.1640   -0.1530 o         1 MOL     -0.752043
    110 H47         3.3960    1.1210   -2.1700 hn        1 MOL      0.240651
    111 H48         1.2330    0.4760   -0.3320 h1        1 MOL      0.095399
    112 H49         2.2010   -1.6930   -2.1330 hc        1 MOL      0.068861
    113 H50         1.1090   -0.3480   -2.7330 hc        1 MOL      0.068861
    114 N11         3.9480    0.2800    0.5930 n         1 MOL     -0.539063
    115 C36         5.1360   -0.1450    1.4110 c3        1 MOL      0.320495
    116 C37         5.8860   -1.3390    0.7180 c         1 MOL      0.348008
    117 O19         6.1990   -1.2120   -0.4560 o         1 MOL     -0.557827
    118 C38         6.0900    1.0220    1.7390 c3        1 MOL     -0.271830
    119 C39         7.3740    0.4840    2.3140 ca        1 MOL      0.056182
    120 C40         7.4550    0.3060    3.7170 ca        1 MOL     -0.132046
    121 C41         8.4730    0.0680    1.5570 ca        1 MOL     -0.132046
    122 C42         8.5580   -0.3380    4.3120 ca        1 MOL     -0.158911
    123 C43         9.6050   -0.5940    2.1200 ca        1 MOL     -0.158911
    124 C44         9.6290   -0.8300    3.5280 ca        1 MOL     -0.078695
    125 H51         3.9060    1.2210    0.2370 hn        1 MOL      0.271263
    126 H52         4.7510   -0.5350    2.3570 h1        1 MOL      0.002073
    127 H53         5.6270    1.7450    2.4120 hc        1 MOL      0.111990
    128 H54         6.3510    1.5260    0.8180 hc        1 MOL      0.111990
    129 H55         6.6430    0.6430    4.3490 ha        1 MOL      0.116420
    130 H56         8.3730    0.2080    0.4900 ha        1 MOL      0.116420
    131 H57         8.6180   -0.4480    5.3880 ha        1 MOL      0.125488
    132 H58        10.2800   -0.9870    1.3850 ha        1 MOL      0.125488
    133 H59        10.4850   -1.3000    3.9760 ha        1 MOL      0.100513
    134 N12         5.8760   -2.5140    1.3550 n         1 MOL      0.085424
    135 C45         6.5510   -3.7030    0.7860 c3        1 MOL      0.007344
    136 C46         5.7560   -4.4090   -0.2650 c         1 MOL      0.410109
    137 O20         6.3380   -5.3950   -0.7870 o         1 MOL     -0.560218
    138 C47         7.0430   -4.5530    1.9400 c3        1 MOL     -0.031675
    139 C48         6.0720   -4.2250    3.0760 c3        1 MOL      0.028651
    140 C49         5.5850   -2.8050    2.7340 c3        1 MOL     -0.226306
    141 H60         7.4500   -3.3740    0.2760 h1        1 MOL      0.056399
    142 H61         7.0220   -5.6340    1.8090 hc        1 MOL      0.021232
    143 H62         8.0180   -4.2320    2.3110 hc        1 MOL      0.021232
    144 H63         5.3090   -4.9990    3.0240 hc        1 MOL      0.034135
    145 H64         6.4640   -4.3560    4.0880 hc        1 MOL      0.034135
    146 H65         4.4990   -2.7510    2.8410 h1        1 MOL      0.075867
    147 H66         6.0660   -2.1230    3.4340 h1        1 MOL      0.075867
    148 N13         4.4770   -4.0210   -0.5750 n         1 MOL     -0.208956
    149 C50         3.5260   -4.8920   -1.4060 c3        1 MOL     -0.498506
    150 C51         3.4920   -4.5770   -2.9230 c         1 MOL      0.610783
    151 O21         2.8450   -5.3190   -3.5860 o         1 MOL     -0.529613
    152 C52         2.1580   -4.8340   -0.7480 c3        1 MOL      0.445077
    153 C53         2.2140   -5.4310    0.6600 c3        1 MOL     -0.352891
    154 C54         0.9110   -5.5270    1.5010 c         1 MOL      0.786691
    155 O22         0.1710   -4.5810    1.3470 o         1 MOL     -0.736874
    156 O23         0.6890   -6.4520    2.2760 o         1 MOL     -0.736874
    157 H67         4.1600   -3.1240   -0.2430 hn        1 MOL      0.206988
    158 H68         3.9570   -5.8820   -1.2600 h1        1 MOL      0.212237
    159 H69         1.3810   -5.3550   -1.3100 hc        1 MOL     -0.077262
    160 H70         1.8790   -3.7970   -0.5590 hc        1 MOL     -0.077262
    161 H71         2.8250   -4.7910    1.3030 hc        1 MOL      0.052333
    162 H72         2.6020   -6.4500    0.6030 hc        1 MOL      0.052333
    163 N14         4.3090   -3.6160   -3.4300 n         1 MOL     -0.333666
    164 C55         4.2860   -3.1850   -4.8460 c3        1 MOL     -0.061397
    165 H73         3.6590   -3.8650   -5.4230 h1        1 MOL      0.053301
    166 H74         3.8820   -2.1740   -4.9120 h1        1 MOL      0.053301
    167 H75         5.2990   -3.1980   -5.2470 h1        1 MOL      0.053301
    168 H76         4.9280   -3.1030   -2.8240 hn        1 MOL      0.255431
    169 Ca1        -1.7460   -3.5080   -0.0500 Ca        1 MOL      1.730444
    170 O24        -1.2560   -5.4190   -1.8450 oh        1 MOL     -0.836773
    171 H77        -0.5760   -6.1000   -1.8510 ho        1 MOL      0.410222
    172 H78        -1.6490   -5.4720   -2.7200 ho        1 MOL      0.410222
    173 O25        -3.3180   -1.3070   -0.3410 oh        1 MOL     -0.836773
    174 H79        -4.1690   -1.1000   -0.7150 ho        1 MOL      0.410222
    175 H80        -2.8570   -0.4690   -0.2860 ho        1 MOL      0.410222
    176 O26        -4.0970   -4.0580   -1.3170 oh        1 MOL     -0.836773
    177 H81        -4.8820   -3.5670   -1.0680 ho        1 MOL      0.410222
    178 H82        -4.4380   -4.9030   -1.6240 ho        1 MOL      0.410222
    179 O27        -3.0270   -5.8720    0.6230 oh        1 MOL     -0.836773
    180 H83        -3.8270   -5.8700    1.1400 ho        1 MOL      0.410222
    181 H84        -2.6890   -6.7630    0.6920 ho        1 MOL      0.410222
@<TRIPOS>BOND
     1    1    2 1   
     2    1    4 1   
     3    1    5 1   
     4    1    6 1   
     5    2    3 2   
     6    2    7 1   
     7    7    8 1   
     8    7   15 1   
     9    8    9 1   
    10    8   11 1   
    11    8   16 1   
    12    9   10 2   
    13    9   19 1   
    14   11   12 1   
    15   11   17 1   
    16   11   18 1   
    17   12   13 1   
    18   12   14 1   
    19   19   20 1   
    20   19   24 1   
    21   20   21 1   
    22   20   23 1   
    23   20   25 1   
    24   21   22 2   
    25   21   29 1   
    26   23   26 1   
    27   23   27 1   
    28   23   28 1   
    29   29   30 1   
    30   29   37 1   
    31   30   31 1   
    32   30   33 1   
    33   30   38 1   
    34   31   32 2   
    35   31   41 1   
    36   33   34 1   
    37   33   39 1   
    38   33   40 1   
    39   34   35 1   
    40   34   36 1   
    41   41   42 1   
    42   41   45 1   
    43   42   43 1   
    44   42   46 1   
    45   42   47 1   
    46   43   44 2   
    47   43   48 1   
    48   48   49 1   
    49   48   56 1   
    50   49   50 1   
    51   49   52 1   
    52   49   57 1   
    53   50   51 2   
    54   50   62 1   
    55   52   53 1   
    56   52   58 1   
    57   52   59 1   
    58   53   54 1   
    59   53   55 2   
    60   54   60 1   
    61   54   61 1   
    62   62   63 1   
    63   62   66 1   
    64   63   64 1   
    65   63   67 1   
    66   63   68 1   
    67   64   65 2   
    68   64   69 1   
    69   69   70 1   
    70   69   76 1   
    71   70   71 1   
    72   70   73 1   
    73   70   77 1   
    74   71   72 2   
    75   71   83 1   
    76   73   74 1   
    77   73   75 1   
    78   73   78 1   
    79   74   80 1   
    80   74   81 1   
    81   74   82 1   
    82   75   79 1   
    83   83   84 1   
    84   83   91 1   
    85   84   85 1   
    86   84   87 1   
    87   84   92 1   
    88   85   86 2   
    89   85  102 1   
    90   87   88 1   
    91   87   89 1   
    92   87   93 1   
    93   88   90 1   
    94   88   94 1   
    95   88   95 1   
    96   89   96 1   
    97   89   97 1   
    98   89   98 1   
    99   90   99 1   
   100   90  100 1   
   101   90  101 1   
   102  102  103 1   
   103  102  110 1   
   104  103  104 1   
   105  103  106 1   
   106  103  111 1   
   107  104  105 2   
   108  104  114 1   
   109  106  107 1   
   110  106  112 1   
   111  106  113 1   
   112  107  108 1   
   113  107  109 1   
   114  114  115 1   
   115  114  125 1   
   116  115  116 1   
   117  115  118 1   
   118  115  126 1   
   119  116  117 2   
   120  116  134 1   
   121  118  119 1   
   122  118  127 1   
   123  118  128 1   
   124  119  120 ar  
   125  119  121 ar  
   126  120  122 ar  
   127  120  129 1   
   128  121  123 ar  
   129  121  130 1   
   130  122  124 ar  
   131  122  131 1   
   132  123  124 ar  
   133  123  132 1   
   134  124  133 1   
   135  134  135 1   
   136  134  140 1   
   137  135  136 1   
   138  135  138 1   
   139  135  141 1   
   140  136  137 2   
   141  136  148 1   
   142  138  139 1   
   143  138  142 1   
   144  138  143 1   
   145  139  140 1   
   146  139  144 1   
   147  139  145 1   
   148  140  146 1   
   149  140  147 1   
   150  148  149 1   
   151  148  157 1   
   152  149  150 1   
   153  149  152 1   
   154  149  158 1   
   155  150  151 2   
   156  150  163 1   
   157  152  153 1   
   158  152  159 1   
   159  152  160 1   
   160  153  154 1   
   161  153  161 1   
   162  153  162 1   
   163  154  155 1   
   164  154  156 1   
   165  163  164 1   
   166  163  168 1   
   167  164  165 1   
   168  164  166 1   
   169  164  167 1   
   170  170  171 1   
   171  170  172 1   
   172  173  174 1   
   173  173  175 1   
   174  176  177 1   
   175  176  178 1   
   176  179  180 1   
   177  179  181 1   
@<TRIPOS>SUBSTRUCTURE
     1 MOL         1 TEMP              0 ****  ****    0 ROOT
