@<TRIPOS>MOLECULE
MOL
  181   177     1     0     0
SMALL
resp


@<TRIPOS>ATOM
      1 C1         -0.2510    6.4790    3.2090 c3        1 MOL     -0.464488
      2 C2         -1.5250    6.2230    2.4020 c         1 MOL      0.677331
      3 O1         -1.7150    6.8720    1.3320 o         1 MOL     -0.577314
      4 H1         -0.2080    5.7870    4.0500 hc        1 MOL      0.118724
      5 H2          0.6210    6.3300    2.5720 hc        1 MOL      0.118724
      6 H3         -0.2560    7.5030    3.5830 hc        1 MOL      0.118724
      7 N1         -2.4290    5.4610    2.9870 n         1 MOL     -0.559835
      8 C3         -3.6690    4.9890    2.3310 c3        1 MOL      0.217744
      9 C4         -3.5300    4.2130    1.0140 c         1 MOL      0.647591
     10 O2         -2.7330    3.3140    0.9370 o         1 MOL     -0.586930
     11 C5         -4.4740    4.1120    3.3500 c3        1 MOL     -0.324388
     12 C6         -5.8860    3.7260    2.8060 c         1 MOL      0.731564
     13 O3         -6.1220    2.4900    2.6710 o         1 MOL     -0.718126
     14 O4         -6.7230    4.5940    2.4420 o         1 MOL     -0.718126
     15 H4         -2.1100    4.9030    3.7630 hn        1 MOL      0.307482
     16 H5         -4.2830    5.8850    2.1810 h1        1 MOL      0.037947
     17 H6         -4.6070    4.7210    4.2460 hc        1 MOL      0.045035
     18 H7         -3.7770    3.2940    3.5550 hc        1 MOL      0.045035
     19 N2         -4.3880    4.5490    0.0390 n         1 MOL     -0.772306
     20 C7         -4.5630    3.9120   -1.2410 c3        1 MOL      0.693286
     21 C8         -3.3140    4.0000   -2.1490 c         1 MOL      0.386109
     22 O5         -2.7330    5.0260   -2.0400 o         1 MOL     -0.530038
     23 C9         -5.8510    4.3480   -1.8500 c3        1 MOL     -0.463358
     24 H8         -5.0220    5.3120    0.1870 hn        1 MOL      0.333148
     25 H9         -4.6820    2.8610   -0.9690 h1        1 MOL      0.041122
     26 H10        -5.9690    4.0090   -2.8820 hc        1 MOL      0.104898
     27 H11        -6.7620    4.1420   -1.2850 hc        1 MOL      0.104898
     28 H12        -5.6780    5.4150   -2.0320 hc        1 MOL      0.104898
     29 N3         -3.0310    3.1820   -3.1040 n         1 MOL     -0.333477
     30 C10        -3.7380    2.0000   -3.6180 c3        1 MOL     -0.066690
     31 C11        -4.0910    0.9640   -2.5590 c         1 MOL      0.074363
     32 O6         -3.3230    0.6890   -1.6150 o         1 MOL     -0.411615
     33 C12        -3.0510    1.3720   -4.8100 c3        1 MOL     -0.186471
     34 C13        -1.6160    1.0880   -4.4820 c         1 MOL      0.766295
     35 O7         -1.2680    0.2770   -3.5870 o         1 MOL     -0.694897
     36 O8         -0.7810    1.6330   -5.1410 o         1 MOL     -0.694897
     37 H13        -2.1110    3.3320   -3.5070 hn        1 MOL      0.261965
     38 H14        -4.7200    2.3300   -3.9540 h1        1 MOL      0.052905
     39 H15        -2.9600    2.0680   -5.6430 hc        1 MOL      0.070609
     40 H16        -3.4940    0.4450   -5.1610 hc        1 MOL      0.070609
     41 N4         -5.1260    0.2180   -2.8770 n         1 MOL     -0.104350
     42 C14        -5.8960   -0.6910   -2.0390 c3        1 MOL     -0.024758
     43 C15        -6.8350   -0.0310   -0.9120 c         1 MOL      0.547244
     44 O9         -7.2380    1.1430   -1.0310 o         1 MOL     -0.568978
     45 H17        -5.6290    0.4550   -3.7220 hn        1 MOL      0.228249
     46 H18        -5.2070   -1.3920   -1.5600 h1        1 MOL      0.052267
     47 H19        -6.5190   -1.3510   -2.6460 h1        1 MOL      0.052267
     48 N5         -7.1910   -0.7250    0.1060 n         1 MOL     -0.429913
     49 C16        -7.1590   -2.2720    0.2710 c3        1 MOL     -0.114917
     50 C17        -6.2760   -2.7140    1.4960 c         1 MOL      0.544178
     51 O10        -6.3350   -3.8460    2.0020 o         1 MOL     -0.506988
     52 C18        -8.5900   -2.7490    0.4470 c3        1 MOL     -0.066429
     53 C19        -9.5000   -2.7960   -0.7630 c         1 MOL      0.634406
     54 N6        -10.7340   -2.8810   -0.5970 n         1 MOL     -0.726377
     55 O11        -9.0740   -2.9880   -1.9230 o         1 MOL     -0.567888
     56 H20        -7.6340   -0.1760    0.8200 hn        1 MOL      0.321756
     57 H21        -6.7510   -2.7340   -0.6300 h1        1 MOL      0.126095
     58 H22        -9.0930   -2.1530    1.2090 hc        1 MOL      0.040853
     59 H23        -8.6300   -3.7590    0.8700 hc        1 MOL      0.040853
     60 H24       -11.1650   -2.7620    0.3120 hn        1 MOL      0.350287
     61 H25       -11.2890   -3.0810   -1.4080 hn        1 MOL      0.350287
     62 N7         -5.4200   -1.8340    2.0380 n         1 MOL     -0.277258
     63 C20        -4.5170   -2.0110    3.2110 c3        1 MOL     -0.235931
     64 C21        -3.5330   -3.1720    3.1050 c         1 MOL      0.580764
     65 O12        -3.5760   -4.0930    3.8820 o         1 MOL     -0.538933
     66 H26        -5.4290   -0.9120    1.6310 hn        1 MOL      0.245941
     67 H27        -5.1550   -2.2430    4.0700 h1        1 MOL      0.122464
     68 H28        -3.9260   -1.1170    3.4020 h1        1 MOL      0.122464
     69 N8         -2.7750   -3.2110    1.9980 n         1 MOL     -0.405554
     70 C22        -1.7060   -4.2310    1.6580 c3        1 MOL      0.005742
     71 C23        -0.4110   -3.6140    1.1520 c         1 MOL      0.274020
     72 O13        -0.4770   -2.5620    0.4490 o         1 MOL     -0.436508
     73 C24        -2.2170   -5.2400    0.6860 c3        1 MOL      0.475434
     74 C25        -3.5660   -5.8270    0.9790 c3        1 MOL     -0.488839
     75 O14        -2.3610   -4.6460   -0.5880 oh        1 MOL     -0.642152
     76 H29        -2.8930   -2.4740    1.3180 hn        1 MOL      0.317113
     77 H30        -1.4810   -4.8730    2.5060 h1        1 MOL      0.031460
     78 H31        -1.5260   -6.0870    0.6160 h1        1 MOL     -0.030471
     79 H32        -1.5320   -4.8810   -1.0160 ho        1 MOL      0.397468
     80 H33        -4.3190   -5.1660    0.5560 hc        1 MOL      0.130330
     81 H34        -3.6320   -6.8090    0.5100 hc        1 MOL      0.130330
     82 H35        -3.6670   -5.9860    2.0570 hc        1 MOL      0.130330
     83 N9          0.6640   -4.2210    1.4690 n         1 MOL      0.023350
     84 C26         1.9920   -3.6560    1.2710 c3        1 MOL     -0.520467
     85 C27         2.6890   -3.9150   -0.0170 c         1 MOL      0.584418
     86 O15         2.6870   -5.0230   -0.5040 o         1 MOL     -0.581463
     87 C28         2.8570   -4.2370    2.4700 c3        1 MOL      0.327994
     88 C29         4.2880   -3.8380    2.4080 c3        1 MOL      0.373713
     89 C30         2.2380   -3.9440    3.8640 c3        1 MOL     -0.372666
     90 C31         5.2520   -4.5830    3.3910 c3        1 MOL     -0.082664
     91 H36         0.5440   -5.2070    1.6320 hn        1 MOL      0.175857
     92 H37         1.9390   -2.5880    1.4820 h1        1 MOL      0.233922
     93 H38         3.0100   -5.3120    2.3780 hc        1 MOL     -0.069741
     94 H39         4.3460   -2.7640    2.5590 hc        1 MOL     -0.122341
     95 H40         4.6810   -4.1550    1.4450 hc        1 MOL     -0.122341
     96 H41         1.2110   -4.3020    3.8660 hc        1 MOL      0.065797
     97 H42         2.9080   -4.3680    4.6080 hc        1 MOL      0.065797
     98 H43         2.2680   -2.8540    3.9650 hc        1 MOL      0.065797
     99 H44         5.1850   -5.6650    3.2840 hc        1 MOL     -0.006222
    100 H45         6.2300   -4.1700    3.1150 hc        1 MOL     -0.006222
    101 H46         5.1180   -4.3090    4.4290 hc        1 MOL     -0.006222
    102 N10         3.0430   -2.8760   -0.7390 n         1 MOL     -0.140108
    103 C32         3.6210   -2.9230   -2.0570 c3        1 MOL      0.097319
    104 C33         4.9650   -2.1840   -2.1360 c         1 MOL      0.499293
    105 O16         5.6470   -2.4430   -3.0990 o         1 MOL     -0.574140
    106 C34         2.6570   -2.3490   -3.1460 c3        1 MOL      0.218639
    107 C35         1.2520   -2.8360   -3.2250 c         1 MOL      0.554046
    108 O17         1.0820   -3.8510   -3.9280 o         1 MOL     -0.680974
    109 O18         0.2640   -2.3620   -2.5420 o         1 MOL     -0.680974
    110 H47         2.9040   -1.9810   -0.3020 hn        1 MOL     -0.008055
    111 H48         3.9220   -3.9290   -2.3630 h1        1 MOL      0.032116
    112 H49         3.0360   -2.5520   -4.1500 hc        1 MOL     -0.074208
    113 H50         2.7150   -1.2900   -2.8940 hc        1 MOL     -0.074208
    114 N11         5.3610   -1.2150   -1.2690 n         1 MOL     -0.601914
    115 C36         6.5330   -0.3450   -1.3590 c3        1 MOL      0.708702
    116 C37         6.3430    0.9940   -0.7010 c         1 MOL      0.234844
    117 O19         7.0100    1.3510    0.2410 o         1 MOL     -0.492346
    118 C38         7.7800   -1.1790   -0.9310 c3        1 MOL     -0.401696
    119 C39         9.0530   -0.4150   -1.1370 ca        1 MOL      0.294088
    120 C40         9.9080   -0.4230   -0.1030 ca        1 MOL     -0.273981
    121 C41         9.4130    0.1500   -2.3700 ca        1 MOL     -0.273981
    122 C42        11.0750    0.3580   -0.1180 ca        1 MOL     -0.047251
    123 C43        10.4870    1.0480   -2.4080 ca        1 MOL     -0.047251
    124 C44        11.3590    1.1590   -1.2630 ca        1 MOL     -0.200570
    125 H51         4.6100   -1.0360   -0.6190 hn        1 MOL      0.164308
    126 H52         6.7310   -0.1060   -2.3980 h1        1 MOL     -0.094326
    127 H53         7.8470   -2.1070   -1.4960 hc        1 MOL      0.112523
    128 H54         7.6340   -1.4730    0.1050 hc        1 MOL      0.112523
    129 H55         9.5820   -0.8670    0.8190 ha        1 MOL      0.135371
    130 H56         8.6750    0.2630   -3.1550 ha        1 MOL      0.135371
    131 H57        11.7470    0.2230    0.7050 ha        1 MOL      0.093134
    132 H58        10.5760    1.6280   -3.3100 ha        1 MOL      0.093134
    133 H59        12.3200    1.6470   -1.2610 ha        1 MOL      0.104040
    134 N12         5.3090    1.7330   -1.1630 n         1 MOL     -0.057628
    135 C45         4.9620    3.0800   -0.7310 c3        1 MOL     -0.106744
    136 C46         4.6380    3.1810    0.7420 c         1 MOL      0.326784
    137 O20         4.6570    4.2420    1.3460 o         1 MOL     -0.527171
    138 C47         3.8230    3.6850   -1.5960 c3        1 MOL      0.024129
    139 C48         4.0320    2.8390   -2.8870 c3        1 MOL     -0.122103
    140 C49         4.4670    1.4560   -2.3890 c3        1 MOL     -0.166457
    141 H60         5.8340    3.6910   -0.9540 h1        1 MOL      0.115531
    142 H61         2.8470    3.6550   -1.1190 hc        1 MOL      0.052054
    143 H62         3.9480    4.7470   -1.7990 hc        1 MOL      0.052054
    144 H63         3.0710    2.8090   -3.3930 hc        1 MOL      0.046809
    145 H64         4.7890    3.3610   -3.4600 hc        1 MOL      0.046809
    146 H65         3.5950    0.9710   -1.9380 h1        1 MOL      0.136621
    147 H66         5.0720    0.9700   -3.1590 h1        1 MOL      0.136621
    148 N13         4.2970    2.0660    1.4320 n         1 MOL     -0.004600
    149 C50         3.9650    2.0690    2.8730 c3        1 MOL     -0.105758
    150 C51         5.1120    1.6900    3.8040 c         1 MOL      0.540068
    151 O21         5.1960    2.2430    4.8790 o         1 MOL     -0.566403
    152 C52         2.8460    0.9960    3.1350 c3        1 MOL     -0.055365
    153 C53         1.8420    0.8600    1.9810 c3        1 MOL     -0.011134
    154 C54         2.2960   -0.1220    0.9000 c         1 MOL      0.435976
    155 O22         1.3930   -0.4600    0.1330 o         1 MOL     -0.489389
    156 O23         3.4520   -0.5590    0.8040 o         1 MOL     -0.489389
    157 H67         4.3130    1.1610    0.9890 hn        1 MOL      0.067623
    158 H68         3.5810    3.0350    3.1790 h1        1 MOL      0.104116
    159 H69         2.2540    1.1800    4.0370 hc        1 MOL      0.004253
    160 H70         3.2860   -0.0070    3.2180 hc        1 MOL      0.004253
    161 H71         1.5900    1.8140    1.5150 hc        1 MOL      0.028089
    162 H72         0.8680    0.5450    2.3430 hc        1 MOL      0.028089
    163 N14         5.9830    0.7940    3.3460 n         1 MOL     -0.287924
    164 C55         7.2590    0.5600    4.1170 c3        1 MOL     -0.239362
    165 H73         7.1480    0.9480    5.1290 h1        1 MOL      0.105005
    166 H74         7.4680   -0.5090    4.1590 h1        1 MOL      0.105005
    167 H75         8.0830    1.0740    3.6210 h1        1 MOL      0.105005
    168 H76         5.8170    0.4820    2.3990 hn        1 MOL      0.256447
    169 Ca1        -0.7870   -0.4080   -1.1970 Ca        1 MOL      1.641690
    170 O24         0.8190    1.4670   -2.4380 oh        1 MOL     -0.885946
    171 H77         1.2380    2.3280   -2.4440 ho        1 MOL      0.418251
    172 H78         0.3010    1.4450   -3.2390 ho        1 MOL      0.418251
    173 O25        -2.6120   -2.1910   -1.9270 oh        1 MOL     -0.885946
    174 H79        -2.6440   -3.0460   -1.5010 ho        1 MOL      0.418251
    175 H80        -2.4890   -2.3940   -2.8530 ho        1 MOL      0.418251
    176 O26        -2.0580   -0.2720    1.0550 oh        1 MOL     -0.885946
    177 H81        -1.7410    0.2990    1.7560 ho        1 MOL      0.418251
    178 H82        -2.9910   -0.0920    0.9970 ho        1 MOL      0.418251
    179 O27        -0.6190    2.1980   -0.0490 oh        1 MOL     -0.885946
    180 H83        -0.2870    3.0930   -0.1310 ho        1 MOL      0.418251
    181 H84        -1.4850    2.3000    0.3430 ho        1 MOL      0.418251
@<TRIPOS>BOND
     1    1    2 1   
     2    1    4 1   
     3    1    5 1   
     4    1    6 1   
     5    2    3 2   
     6    2    7 1   
     7    7    8 1   
     8    7   15 1   
     9    8    9 1   
    10    8   11 1   
    11    8   16 1   
    12    9   10 2   
    13    9   19 1   
    14   11   12 1   
    15   11   17 1   
    16   11   18 1   
    17   12   13 1   
    18   12   14 1   
    19   19   20 1   
    20   19   24 1   
    21   20   21 1   
    22   20   23 1   
    23   20   25 1   
    24   21   22 2   
    25   21   29 1   
    26   23   26 1   
    27   23   27 1   
    28   23   28 1   
    29   29   30 1   
    30   29   37 1   
    31   30   31 1   
    32   30   33 1   
    33   30   38 1   
    34   31   32 2   
    35   31   41 1   
    36   33   34 1   
    37   33   39 1   
    38   33   40 1   
    39   34   35 1   
    40   34   36 1   
    41   41   42 1   
    42   41   45 1   
    43   42   43 1   
    44   42   46 1   
    45   42   47 1   
    46   43   44 2   
    47   43   48 1   
    48   48   49 1   
    49   48   56 1   
    50   49   50 1   
    51   49   52 1   
    52   49   57 1   
    53   50   51 2   
    54   50   62 1   
    55   52   53 1   
    56   52   58 1   
    57   52   59 1   
    58   53   54 1   
    59   53   55 2   
    60   54   60 1   
    61   54   61 1   
    62   62   63 1   
    63   62   66 1   
    64   63   64 1   
    65   63   67 1   
    66   63   68 1   
    67   64   65 2   
    68   64   69 1   
    69   69   70 1   
    70   69   76 1   
    71   70   71 1   
    72   70   73 1   
    73   70   77 1   
    74   71   72 2   
    75   71   83 1   
    76   73   74 1   
    77   73   75 1   
    78   73   78 1   
    79   74   80 1   
    80   74   81 1   
    81   74   82 1   
    82   75   79 1   
    83   83   84 1   
    84   83   91 1   
    85   84   85 1   
    86   84   87 1   
    87   84   92 1   
    88   85   86 2   
    89   85  102 1   
    90   87   88 1   
    91   87   89 1   
    92   87   93 1   
    93   88   90 1   
    94   88   94 1   
    95   88   95 1   
    96   89   96 1   
    97   89   97 1   
    98   89   98 1   
    99   90   99 1   
   100   90  100 1   
   101   90  101 1   
   102  102  103 1   
   103  102  110 1   
   104  103  104 1   
   105  103  106 1   
   106  103  111 1   
   107  104  105 2   
   108  104  114 1   
   109  106  107 1   
   110  106  112 1   
   111  106  113 1   
   112  107  108 1   
   113  107  109 1   
   114  114  115 1   
   115  114  125 1   
   116  115  116 1   
   117  115  118 1   
   118  115  126 1   
   119  116  117 2   
   120  116  134 1   
   121  118  119 1   
   122  118  127 1   
   123  118  128 1   
   124  119  120 ar  
   125  119  121 ar  
   126  120  122 ar  
   127  120  129 1   
   128  121  123 ar  
   129  121  130 1   
   130  122  124 ar  
   131  122  131 1   
   132  123  124 ar  
   133  123  132 1   
   134  124  133 1   
   135  134  135 1   
   136  134  140 1   
   137  135  136 1   
   138  135  138 1   
   139  135  141 1   
   140  136  137 2   
   141  136  148 1   
   142  138  139 1   
   143  138  142 1   
   144  138  143 1   
   145  139  140 1   
   146  139  144 1   
   147  139  145 1   
   148  140  146 1   
   149  140  147 1   
   150  148  149 1   
   151  148  157 1   
   152  149  150 1   
   153  149  152 1   
   154  149  158 1   
   155  150  151 2   
   156  150  163 1   
   157  152  153 1   
   158  152  159 1   
   159  152  160 1   
   160  153  154 1   
   161  153  161 1   
   162  153  162 1   
   163  154  155 1   
   164  154  156 1   
   165  163  164 1   
   166  163  168 1   
   167  164  165 1   
   168  164  166 1   
   169  164  167 1   
   170  170  171 1   
   171  170  172 1   
   172  173  174 1   
   173  173  175 1   
   174  176  177 1   
   175  176  178 1   
   176  179  180 1   
   177  179  181 1   
@<TRIPOS>SUBSTRUCTURE
     1 MOL         1 TEMP              0 ****  ****    0 ROOT
