@<TRIPOS>MOLECULE
MOL
  179   176     1     0     0
SMALL
resp


@<TRIPOS>ATOM
      1 C1         -0.0790    4.5360    5.6060 c3        1 MOL     -0.380903
      2 C2         -0.2390    4.0370    4.1760 c         1 MOL      0.804879
      3 O1          0.5450    4.3090    3.2830 o         1 MOL     -0.635554
      4 H1          0.8900    5.0230    5.7140 hc        1 MOL      0.100151
      5 H2         -0.8700    5.2500    5.8340 hc        1 MOL      0.100151
      6 H3         -0.1400    3.6930    6.2950 hc        1 MOL      0.100151
      7 N1         -1.2700    3.2900    4.0020 n         1 MOL     -0.641370
      8 C3         -1.8480    2.8070    2.7060 c3        1 MOL     -0.100527
      9 C4         -2.6040    3.8770    1.9760 c         1 MOL      0.724182
     10 O2         -3.5060    4.5500    2.5570 o         1 MOL     -0.555419
     11 C5         -2.7970    1.6020    3.0140 c3        1 MOL      0.167538
     12 C6         -3.5200    0.9670    1.7940 c         1 MOL      0.430619
     13 O3         -3.8560   -0.2160    1.8550 o         1 MOL     -0.611778
     14 O4         -3.5940    1.5450    0.6500 o         1 MOL     -0.611778
     15 H4         -1.8160    3.0700    4.8180 hn        1 MOL      0.332315
     16 H5         -0.9830    2.4710    2.1490 h1        1 MOL      0.048298
     17 H6         -3.5260    1.9630    3.7310 hc        1 MOL      0.002177
     18 H7         -2.1910    0.8470    3.5100 hc        1 MOL      0.002177
     19 N2         -2.1660    4.1590    0.7210 n         1 MOL     -0.431738
     20 C7         -2.6050    5.3810   -0.0110 c3        1 MOL     -0.064340
     21 C8         -3.9700    5.1830   -0.7610 c         1 MOL      0.518547
     22 O5         -4.6670    6.1850   -1.0510 o         1 MOL     -0.549465
     23 C9         -1.4610    5.9730   -0.9260 c3        1 MOL     -0.045455
     24 C10        -1.0110    5.0550   -2.0520 c3        1 MOL     -0.030437
     25 C11        -0.2620    5.8610   -3.1770 c3        1 MOL     -0.026550
     26 C12         0.4310    4.8710   -4.0800 c3        1 MOL      0.214256
     27 N3          1.0290    5.6570   -5.1960 n4        1 MOL     -0.450108
     28 H8         -1.5660    3.4860    0.2500 hn        1 MOL      0.255167
     29 H9         -2.8970    6.1720    0.6890 h1        1 MOL      0.124726
     30 H10        -0.5650    6.2030   -0.3510 hc        1 MOL      0.053553
     31 H11        -1.8120    6.9010   -1.3720 hc        1 MOL      0.053553
     32 H12        -1.7920    4.5680   -2.6390 hc        1 MOL      0.044526
     33 H13        -0.2010    4.4400   -1.6850 hc        1 MOL      0.044526
     34 H14         0.4510    6.5420   -2.7150 hc        1 MOL      0.017661
     35 H15        -1.0260    6.3230   -3.8050 hc        1 MOL      0.017661
     36 H16        -0.2490    4.0600   -4.3690 hx        1 MOL      0.032025
     37 H17         1.1670    4.3340   -3.4780 hx        1 MOL      0.032025
     38 H18         1.6840    5.0920   -5.7180 hn        1 MOL      0.325992
     39 H19         0.2660    5.7470   -5.8540 hn        1 MOL      0.325992
     40 H20         1.4640    6.5060   -4.8690 hn        1 MOL      0.325992
     41 N4         -4.4400    3.9340   -0.9130 n         1 MOL     -0.242986
     42 C13        -5.6630    3.5430   -1.7000 c3        1 MOL      0.058564
     43 C14        -6.7020    2.8730   -0.7420 c         1 MOL      0.398224
     44 O6         -7.9370    2.9880   -0.9600 o         1 MOL     -0.530489
     45 C15        -5.2660    2.5580   -2.8250 c3        1 MOL     -0.266517
     46 C16        -4.5650    1.2820   -2.3810 c         1 MOL      0.734113
     47 O7         -5.1350    0.3640   -1.6990 o         1 MOL     -0.764702
     48 O8         -3.3140    1.2120   -2.3810 o         1 MOL     -0.764702
     49 H21        -3.9140    3.2100   -0.4570 hn        1 MOL      0.061627
     50 H22        -6.0080    4.4810   -2.1240 h1        1 MOL      0.100380
     51 H23        -4.5990    3.1050   -3.4940 hc        1 MOL      0.086337
     52 H24        -6.1270    2.3430   -3.4450 hc        1 MOL      0.086337
     53 N5         -6.2420    2.2050    0.3530 n         1 MOL     -0.022140
     54 C17        -7.0750    1.6410    1.4130 c3        1 MOL     -0.321841
     55 C18        -7.5600    0.1300    1.1000 c         1 MOL      0.625183
     56 O9         -8.1880   -0.4350    2.0160 o         1 MOL     -0.556976
     57 H25        -5.2740    2.3370    0.5810 hn        1 MOL      0.101317
     58 H26        -7.8920    2.3510    1.5830 h1        1 MOL      0.148664
     59 H27        -6.4540    1.6810    2.3080 h1        1 MOL      0.148664
     60 N6         -7.2190   -0.4380   -0.0720 n         1 MOL     -0.409127
     61 C19        -7.5940   -1.8850   -0.3570 c3        1 MOL      0.217218
     62 C20        -6.3410   -2.7670   -0.7950 c         1 MOL      0.451396
     63 O10        -5.2040   -2.3370   -0.8680 o         1 MOL     -0.569316
     64 C21        -8.7770   -2.0370   -1.2830 c3        1 MOL     -0.427766
     65 C22        -8.4930   -1.7820   -2.7920 c         1 MOL      0.664309
     66 N7         -7.3520   -1.1180   -3.0390 n         1 MOL     -0.735169
     67 O11        -9.1170   -2.2660   -3.7000 o         1 MOL     -0.559248
     68 H28        -6.6780    0.0630   -0.7500 hn        1 MOL      0.226244
     69 H29        -7.9640   -2.3760    0.5360 h1        1 MOL      0.064442
     70 H30        -9.5110   -1.3200   -0.9190 hc        1 MOL      0.135044
     71 H31        -9.3360   -2.9770   -1.2360 hc        1 MOL      0.135044
     72 H32        -6.7810   -0.7700   -2.2830 hn        1 MOL      0.338489
     73 H33        -7.1930   -0.8240   -3.9880 hn        1 MOL      0.338489
     74 N8         -6.4700   -4.0950   -0.7000 n         1 MOL     -0.400964
     75 C23        -5.4030   -5.0220   -1.0640 c3        1 MOL     -0.033097
     76 C24        -4.3540   -5.1310    0.0270 c         1 MOL      0.623666
     77 O12        -4.6850   -4.9750    1.2180 o         1 MOL     -0.512405
     78 H34        -7.4170   -4.4110   -0.5580 hn        1 MOL      0.303222
     79 H35        -4.9400   -4.7900   -2.0240 h1        1 MOL      0.067571
     80 H36        -5.8330   -6.0140   -1.1630 h1        1 MOL      0.067571
     81 N9         -3.0780   -5.4060   -0.3190 n         1 MOL     -0.620670
     82 C25        -1.9330   -5.4290    0.5960 c3        1 MOL      0.183636
     83 C26        -1.7070   -3.9540    1.1250 c         1 MOL      0.595787
     84 O13        -2.2770   -3.0540    0.5970 o         1 MOL     -0.541544
     85 C27        -0.6870   -6.0060   -0.1270 c3        1 MOL     -0.240961
     86 C28         0.0990   -5.0170   -1.0300 ca        1 MOL      0.064246
     87 C29        -0.1340   -4.8110   -2.3690 ca        1 MOL     -0.135219
     88 C30         1.0950   -4.3310   -0.4170 ca        1 MOL     -0.135219
     89 C31         0.7320   -4.0140   -3.1650 ca        1 MOL     -0.344467
     90 C32         1.8700   -3.3960   -1.1210 ca        1 MOL     -0.344467
     91 C33         1.8080   -3.3780   -2.5630 ca        1 MOL      0.463001
     92 O14         2.5980   -2.5720   -3.2590 oh        1 MOL     -0.501395
     93 H37        -2.8600   -5.3870   -1.2990 hn        1 MOL      0.312224
     94 H38        -2.0980   -6.0550    1.4640 h1        1 MOL      0.062571
     95 H39        -1.1520   -6.8060   -0.7200 hc        1 MOL      0.097754
     96 H40        -0.0830   -6.4410    0.6710 hc        1 MOL      0.097754
     97 H41        -0.9040   -5.3580   -2.9050 ha        1 MOL      0.115063
     98 H42         1.2250   -4.3860    0.6490 ha        1 MOL      0.115063
     99 H43         0.5670   -3.9330   -4.2260 ha        1 MOL      0.176201
    100 H44         2.5020   -2.6740   -0.6290 ha        1 MOL      0.176201
    101 H45         3.2200   -2.2770   -2.5980 ho        1 MOL      0.353376
    102 N10        -0.8210   -3.7400    2.1420 n         1 MOL     -0.782457
    103 C34        -0.3620   -2.4880    2.8080 c3        1 MOL      0.315669
    104 C35         0.0330   -1.3270    1.8460 c         1 MOL      0.661175
    105 O15        -0.8640   -0.7700    1.2130 o         1 MOL     -0.623889
    106 C36        -1.2840   -1.9250    3.9890 c3        1 MOL      0.310848
    107 C37        -0.5480   -0.9330    4.9380 c3        1 MOL     -0.067214
    108 C38        -2.0910   -2.8650    4.7790 c3        1 MOL     -0.643840
    109 C39         0.3270   -1.4470    6.0440 c3        1 MOL     -0.374373
    110 H46        -0.4510   -4.5940    2.5320 hn        1 MOL      0.350642
    111 H47         0.5480   -2.7800    3.3290 h1        1 MOL     -0.034444
    112 H48        -1.9950   -1.3540    3.3920 hc        1 MOL      0.003708
    113 H49        -1.3340   -0.3850    5.4610 hc        1 MOL      0.030154
    114 H50         0.0360   -0.1960    4.3940 hc        1 MOL      0.030154
    115 H51        -1.4520   -3.6140    5.2500 hc        1 MOL      0.172565
    116 H52        -2.7100   -2.3270    5.4970 hc        1 MOL      0.172565
    117 H53        -2.7660   -3.3170    4.0570 hc        1 MOL      0.172565
    118 H54         0.6980   -2.4240    5.7440 hc        1 MOL      0.101075
    119 H55         1.0610   -0.6580    6.1890 hc        1 MOL      0.101075
    120 H56        -0.3700   -1.5970    6.8620 hc        1 MOL      0.101075
    121 N11         1.2900   -0.9320    1.8190 n         1 MOL     -0.591619
    122 C40         1.7200    0.3590    1.2900 c3        1 MOL     -0.002661
    123 C41         3.0930    0.4040    0.5420 c         1 MOL      0.575356
    124 O16         3.3470    1.3620   -0.1720 o         1 MOL     -0.526617
    125 C42         1.7670    1.4110    2.4480 c3        1 MOL      0.080670
    126 O17         2.7990    0.8600    3.2720 oh        1 MOL     -0.551716
    127 H57         1.9120   -1.4040    2.4470 hn        1 MOL      0.290829
    128 H58         1.0120    0.6290    0.5130 h1        1 MOL      0.075568
    129 H59         0.7700    1.5500    2.8900 h1        1 MOL      0.085136
    130 H60         2.1630    2.3440    2.0460 h1        1 MOL      0.085136
    131 H61         2.8400    1.4620    4.0220 ho        1 MOL      0.395505
    132 N12         3.9780   -0.5840    0.8580 n         1 MOL     -0.506178
    133 C43         5.3990   -0.5060    0.3910 c3        1 MOL     -0.017137
    134 C44         5.5670   -0.9220   -1.0620 c         1 MOL      0.534889
    135 O18         4.7640   -1.6540   -1.7000 o         1 MOL     -0.564141
    136 C45         6.2380   -1.3670    1.3500 c3        1 MOL     -0.134722
    137 H62         3.7510   -1.4360    1.3580 hn        1 MOL      0.326187
    138 H63         5.6770    0.5370    0.5100 h1        1 MOL      0.177460
    139 H64         6.3470   -0.9400    2.3480 hc        1 MOL      0.063288
    140 H65         5.8510   -2.3760    1.4700 hc        1 MOL      0.063288
    141 H66         7.2270   -1.3350    0.8820 hc        1 MOL      0.063288
    142 N13         6.6260   -0.4550   -1.7000 n         1 MOL     -0.457132
    143 C46         7.7200    0.4270   -1.2300 c3        1 MOL      0.347366
    144 C47         9.0500    0.1840   -1.9920 c         1 MOL      0.313444
    145 O19         8.9430   -0.2710   -3.1210 o         1 MOL     -0.493175
    146 C48         7.1360    1.8070   -1.5130 c3        1 MOL     -0.329007
    147 H67         6.7610   -0.9220   -2.5840 hn        1 MOL      0.296871
    148 H68         7.8530    0.2710   -0.1660 h1        1 MOL     -0.058768
    149 H69         6.2310    2.0770   -0.9740 hc        1 MOL      0.090992
    150 H70         7.9280    2.4700   -1.1620 hc        1 MOL      0.090992
    151 H71         7.0080    1.9330   -2.5880 hc        1 MOL      0.090992
    152 N14        10.2430    0.4630   -1.4660 n         1 MOL     -0.240449
    153 C49        10.5240    1.0090   -0.1380 c3        1 MOL     -0.150236
    154 C50        10.3490   -0.0250    1.0190 c         1 MOL      0.480991
    155 O20         9.8650    0.3340    2.0940 o         1 MOL     -0.561261
    156 C51        11.9610    1.6280   -0.1330 c3        1 MOL      0.044838
    157 C52        13.1650    0.6640   -0.0750 c3        1 MOL     -0.138100
    158 C53        13.3560   -0.1750   -1.3060 c         1 MOL      0.660846
    159 O21        12.7920   -1.2440   -1.4650 o         1 MOL     -0.654659
    160 O22        14.0010    0.4020   -2.2090 o         1 MOL     -0.654659
    161 H72        11.0580    0.0490   -1.8900 hn        1 MOL      0.275833
    162 H73         9.8030    1.8110    0.0580 h1        1 MOL      0.072287
    163 H74        12.0600    2.2970    0.7180 hc        1 MOL      0.020304
    164 H75        12.0090    2.2490   -1.0280 hc        1 MOL      0.020304
    165 H76        13.0360    0.0420    0.8180 hc        1 MOL      0.023524
    166 H77        14.0620    1.2520    0.1060 hc        1 MOL      0.023524
    167 N15        10.7370   -1.2740    0.8450 n         1 MOL     -0.151557
    168 C54        10.4650   -2.2580    1.8490 c3        1 MOL     -0.171618
    169 H78         9.7980   -3.0180    1.4420 h1        1 MOL      0.075679
    170 H79        11.3980   -2.7250    2.1630 h1        1 MOL      0.075679
    171 H80         9.9900   -1.7810    2.7070 h1        1 MOL      0.075679
    172 H81        11.3540   -1.5080    0.0750 hn        1 MOL      0.170882
    173 Ca1        -3.0720   -0.7120   -0.6370 Ca        1 MOL      1.793835
    174 O23        -3.4250   -2.1800   -3.2830 oh        1 MOL     -0.806304
    175 H82        -3.5440   -1.7930   -4.1570 ho        1 MOL      0.408121
    176 H83        -4.1390   -2.8080   -3.2090 ho        1 MOL      0.408121
    177 O24        -0.8590   -0.5080   -2.3540 oh        1 MOL     -0.806304
    178 H84        -0.1300    0.0680   -2.1250 ho        1 MOL      0.408121
    179 H85        -0.6100   -0.8700   -3.2090 ho        1 MOL      0.408121
@<TRIPOS>BOND
     1    1    2 1   
     2    1    4 1   
     3    1    5 1   
     4    1    6 1   
     5    2    3 2   
     6    2    7 1   
     7    7    8 1   
     8    7   15 1   
     9    8    9 1   
    10    8   11 1   
    11    8   16 1   
    12    9   10 2   
    13    9   19 1   
    14   11   12 1   
    15   11   17 1   
    16   11   18 1   
    17   12   13 1   
    18   12   14 1   
    19   19   20 1   
    20   19   28 1   
    21   20   21 1   
    22   20   23 1   
    23   20   29 1   
    24   21   22 2   
    25   21   41 1   
    26   23   24 1   
    27   23   30 1   
    28   23   31 1   
    29   24   25 1   
    30   24   32 1   
    31   24   33 1   
    32   25   26 1   
    33   25   34 1   
    34   25   35 1   
    35   26   27 1   
    36   26   36 1   
    37   26   37 1   
    38   27   38 1   
    39   27   39 1   
    40   27   40 1   
    41   41   42 1   
    42   41   49 1   
    43   42   43 1   
    44   42   45 1   
    45   42   50 1   
    46   43   44 2   
    47   43   53 1   
    48   45   46 1   
    49   45   51 1   
    50   45   52 1   
    51   46   47 1   
    52   46   48 1   
    53   53   54 1   
    54   53   57 1   
    55   54   55 1   
    56   54   58 1   
    57   54   59 1   
    58   55   56 2   
    59   55   60 1   
    60   60   61 1   
    61   60   68 1   
    62   61   62 1   
    63   61   64 1   
    64   61   69 1   
    65   62   63 2   
    66   62   74 1   
    67   64   65 1   
    68   64   70 1   
    69   64   71 1   
    70   65   66 1   
    71   65   67 2   
    72   66   72 1   
    73   66   73 1   
    74   74   75 1   
    75   74   78 1   
    76   75   76 1   
    77   75   79 1   
    78   75   80 1   
    79   76   77 2   
    80   76   81 1   
    81   81   82 1   
    82   81   93 1   
    83   82   83 1   
    84   82   85 1   
    85   82   94 1   
    86   83   84 2   
    87   83  102 1   
    88   85   86 1   
    89   85   95 1   
    90   85   96 1   
    91   86   87 ar  
    92   86   88 ar  
    93   87   89 ar  
    94   87   97 1   
    95   88   90 ar  
    96   88   98 1   
    97   89   91 ar  
    98   89   99 1   
    99   90   91 ar  
   100   90  100 1   
   101   91   92 1   
   102   92  101 1   
   103  102  103 1   
   104  102  110 1   
   105  103  104 1   
   106  103  106 1   
   107  103  111 1   
   108  104  105 2   
   109  104  121 1   
   110  106  107 1   
   111  106  108 1   
   112  106  112 1   
   113  107  109 1   
   114  107  113 1   
   115  107  114 1   
   116  108  115 1   
   117  108  116 1   
   118  108  117 1   
   119  109  118 1   
   120  109  119 1   
   121  109  120 1   
   122  121  122 1   
   123  121  127 1   
   124  122  123 1   
   125  122  125 1   
   126  122  128 1   
   127  123  124 2   
   128  123  132 1   
   129  125  126 1   
   130  125  129 1   
   131  125  130 1   
   132  126  131 1   
   133  132  133 1   
   134  132  137 1   
   135  133  134 1   
   136  133  136 1   
   137  133  138 1   
   138  134  135 2   
   139  134  142 1   
   140  136  139 1   
   141  136  140 1   
   142  136  141 1   
   143  142  143 1   
   144  142  147 1   
   145  143  144 1   
   146  143  146 1   
   147  143  148 1   
   148  144  145 2   
   149  144  152 1   
   150  146  149 1   
   151  146  150 1   
   152  146  151 1   
   153  152  153 1   
   154  152  161 1   
   155  153  154 1   
   156  153  156 1   
   157  153  162 1   
   158  154  155 2   
   159  154  167 1   
   160  156  157 1   
   161  156  163 1   
   162  156  164 1   
   163  157  158 1   
   164  157  165 1   
   165  157  166 1   
   166  158  159 1   
   167  158  160 1   
   168  167  168 1   
   169  167  172 1   
   170  168  169 1   
   171  168  170 1   
   172  168  171 1   
   173  174  175 1   
   174  174  176 1   
   175  177  178 1   
   176  177  179 1   
@<TRIPOS>SUBSTRUCTURE
     1 MOL         1 TEMP              0 ****  ****    0 ROOT
