@<TRIPOS>MOLECULE
MOL
  175   173     1     0     0
SMALL
resp


@<TRIPOS>ATOM
      1 C1         -5.4390    8.3580    1.4800 c3        1 MOL     -0.440310
      2 C2         -6.4390    7.5620    0.7020 c         1 MOL      0.635424
      3 O1         -6.5070    7.8000   -0.5000 o         1 MOL     -0.584229
      4 H1         -5.5420    8.1310    2.5410 hc        1 MOL      0.109465
      5 H2         -4.4330    8.1000    1.1500 hc        1 MOL      0.109465
      6 H3         -5.6150    9.4210    1.3180 hc        1 MOL      0.109465
      7 N1         -7.2040    6.6290    1.2620 n         1 MOL     -0.409498
      8 C3         -8.2740    5.8140    0.6320 c3        1 MOL      0.096571
      9 C4         -7.7150    4.7570   -0.3350 c         1 MOL      0.490443
     10 O2         -8.3150    4.3580   -1.3290 o         1 MOL     -0.536883
     11 C5         -9.0950    5.2240    1.7500 c3        1 MOL     -0.210455
     12 C6        -10.2610    4.3750    1.1970 c         1 MOL      0.710896
     13 O3        -11.3420    4.9280    0.9460 o         1 MOL     -0.714504
     14 O4        -10.0090    3.1660    1.1830 o         1 MOL     -0.714504
     15 H4         -7.0820    6.5120    2.2590 hn        1 MOL      0.254409
     16 H5         -8.9240    6.4560    0.0390 h1        1 MOL      0.070102
     17 H6         -9.3450    6.0770    2.3810 hc        1 MOL      0.012739
     18 H7         -8.3870    4.5930    2.2960 hc        1 MOL      0.012739
     19 N2         -6.4480    4.3080   -0.2100 n         1 MOL     -0.472318
     20 C7         -5.6830    3.4600   -1.0540 c3        1 MOL      0.476524
     21 C8         -4.8340    2.5950   -0.1260 c         1 MOL      0.317041
     22 O5         -4.3800    3.0320    0.9560 o         1 MOL     -0.514823
     23 C9         -4.7160    4.2330   -2.0070 c3        1 MOL     -0.295253
     24 H8         -6.0490    4.5420    0.6860 hn        1 MOL      0.211145
     25 H9         -6.3430    2.8810   -1.6970 h1        1 MOL      0.003056
     26 H10        -4.4850    3.5580   -2.8270 hc        1 MOL      0.079360
     27 H11        -5.3620    4.9640   -2.4970 hc        1 MOL      0.079360
     28 H12        -3.8760    4.6990   -1.5040 hc        1 MOL      0.079360
     29 N3         -4.4570    1.3170   -0.4430 n         1 MOL     -0.218906
     30 C10        -5.0580    0.5980   -1.5580 c3        1 MOL     -0.175798
     31 C11        -5.4770   -0.8640   -1.1670 c         1 MOL      0.568823
     32 O6         -4.9600   -1.3550   -0.1650 o         1 MOL     -0.568776
     33 C12        -3.9910    0.4920   -2.6650 c3        1 MOL     -0.042423
     34 C13        -2.6660   -0.0930   -2.1830 c         1 MOL      0.630129
     35 O7         -2.4200   -1.2930   -2.3100 o         1 MOL     -0.694528
     36 O8         -1.8820    0.6790   -1.6210 o         1 MOL     -0.694528
     37 H13        -3.8780    0.8660    0.2480 hn        1 MOL      0.255343
     38 H14        -6.0130    0.9950   -1.9000 h1        1 MOL      0.101209
     39 H15        -3.7460    1.4830   -3.0520 hc        1 MOL     -0.005323
     40 H16        -4.3950   -0.1240   -3.4690 hc        1 MOL     -0.005323
     41 N4         -6.3870   -1.5650   -1.8630 n         1 MOL     -0.428222
     42 C14        -6.8330   -2.8950   -1.4880 c3        1 MOL      0.054464
     43 C15        -6.5810   -3.9970   -2.5120 c         1 MOL      0.483760
     44 O9         -7.5080   -4.3360   -3.2270 o         1 MOL     -0.567882
     45 H17        -6.9350   -1.1440   -2.6060 hn        1 MOL      0.309788
     46 H18        -7.9150   -2.7630   -1.3780 h1        1 MOL      0.061972
     47 H19        -6.4970   -3.2720   -0.5210 h1        1 MOL      0.061972
     48 N5         -5.4890   -4.6930   -2.4810 n         1 MOL     -0.432087
     49 C16        -4.3570   -4.5560   -1.5370 c3        1 MOL      0.090235
     50 C17        -4.7390   -4.8540   -0.0620 c         1 MOL      0.520213
     51 O10        -5.3240   -5.8770    0.3040 o         1 MOL     -0.571336
     52 C18        -3.1210   -5.2760   -2.1030 c3        1 MOL     -0.139176
     53 C19        -1.8220   -4.8360   -1.4520 c         1 MOL      0.503683
     54 N6         -0.7520   -5.1060   -2.1150 n         1 MOL     -0.623386
     55 O11        -1.7550   -4.0380   -0.5560 o         1 MOL     -0.419483
     56 H20        -5.4140   -5.3830   -3.2120 hn        1 MOL      0.290772
     57 H21        -4.0820   -3.5050   -1.6430 h1        1 MOL      0.043383
     58 H22        -3.0700   -5.0260   -3.1650 hc        1 MOL      0.056224
     59 H23        -3.3010   -6.3370   -1.9470 hc        1 MOL      0.056224
     60 H24        -0.8060   -5.6690   -2.9510 hn        1 MOL      0.326979
     61 H25         0.0860   -4.6470   -1.7840 hn        1 MOL      0.326979
     62 N7         -4.2910   -4.0120    0.8730 n         1 MOL     -0.167613
     63 C20        -4.2870   -4.1470    2.3550 c3        1 MOL     -0.286216
     64 C21        -2.9800   -4.5190    2.9610 c         1 MOL      0.603699
     65 O12        -2.9540   -4.9940    4.0810 o         1 MOL     -0.592796
     66 H26        -4.0180   -3.2110    0.3200 hn        1 MOL      0.223841
     67 H27        -4.9790   -4.9120    2.7010 h1        1 MOL      0.130452
     68 H28        -4.5650   -3.2030    2.8240 h1        1 MOL      0.130452
     69 N8         -1.8790   -4.3660    2.2110 n         1 MOL     -0.123710
     70 C22        -0.4950   -4.7290    2.6960 c3        1 MOL     -0.243774
     71 C23         0.4430   -3.6470    2.2840 c         1 MOL      0.565935
     72 O13         0.1080   -2.7990    1.4800 o         1 MOL     -0.491698
     73 C24        -0.1810   -6.0750    2.0120 c3        1 MOL      0.562828
     74 C25        -1.1970   -7.2390    2.2720 c3        1 MOL     -0.547428
     75 O14        -0.0210   -6.1050    0.6420 oh        1 MOL     -0.578478
     76 H29        -1.9900   -4.0230    1.2790 hn        1 MOL      0.023606
     77 H30        -0.4680   -4.8040    3.7920 h1        1 MOL      0.092466
     78 H31         0.7810   -6.3030    2.4660 h1        1 MOL     -0.058481
     79 H32        -0.3350   -5.3140    0.2030 ho        1 MOL      0.299885
     80 H33        -2.1430   -7.1500    1.7390 hc        1 MOL      0.131868
     81 H34        -0.6430   -8.1260    1.9740 hc        1 MOL      0.131868
     82 H35        -1.3740   -7.3200    3.3520 hc        1 MOL      0.131868
     83 N9          1.6730   -3.6670    2.8410 n         1 MOL     -0.449252
     84 C26         2.7330   -2.7100    2.5110 c3        1 MOL      0.023064
     85 C27         3.5200   -3.1740    1.2560 c         1 MOL      0.491253
     86 O15         4.1570   -4.1900    1.2920 o         1 MOL     -0.572416
     87 C28         3.6810   -2.4880    3.6830 c3        1 MOL      0.228905
     88 C29         4.9120   -1.5510    3.3460 c3        1 MOL     -0.029104
     89 C30         2.9320   -1.9380    4.8240 c3        1 MOL     -0.276439
     90 C31         4.5710   -0.1100    3.0560 c3        1 MOL     -0.109295
     91 H36         1.9010   -4.3980    3.5010 hn        1 MOL      0.287718
     92 H37         2.2530   -1.7900    2.2060 h1        1 MOL      0.088715
     93 H38         4.0880   -3.4650    3.9230 hc        1 MOL     -0.015845
     94 H39         5.5100   -1.8940    2.5020 hc        1 MOL     -0.010983
     95 H40         5.5970   -1.7050    4.1830 hc        1 MOL     -0.010983
     96 H41         3.5520   -1.7890    5.7110 hc        1 MOL      0.061555
     97 H42         2.2190   -1.1710    4.5350 hc        1 MOL      0.061555
     98 H43         2.3080   -2.7190    5.2680 hc        1 MOL      0.061555
     99 H44         5.4830    0.4740    2.9190 hc        1 MOL      0.017108
    100 H45         4.0580    0.0280    2.1120 hc        1 MOL      0.017108
    101 H46         3.9600    0.2600    3.8770 hc        1 MOL      0.017108
    102 N10         3.5650   -2.3640    0.1990 n         1 MOL     -0.409785
    103 C32         4.3060   -2.6960   -1.0820 c3        1 MOL      0.394903
    104 C33         5.5290   -1.7940   -1.4040 c         1 MOL      0.338107
    105 O16         6.2400   -2.0910   -2.3630 o         1 MOL     -0.512741
    106 C34         3.4400   -2.9720   -2.3380 c3        1 MOL     -0.246672
    107 C35         2.2250   -3.8710   -2.0820 c         1 MOL      0.673854
    108 O17         2.1230   -5.0140   -2.6630 o         1 MOL     -0.647443
    109 O18         1.2740   -3.4410   -1.3230 o         1 MOL     -0.647443
    110 H47         3.0070   -1.5180    0.1980 hn        1 MOL      0.111122
    111 H48         4.8340   -3.6440   -0.9720 h1        1 MOL      0.041818
    112 H49         4.0530   -3.5450   -3.0360 hc        1 MOL      0.040898
    113 H50         3.0980   -2.0360   -2.7650 hc        1 MOL      0.040898
    114 N11         5.8620   -0.7200   -0.6320 n         1 MOL     -0.496724
    115 C36         6.9280    0.1880   -0.9950 c3        1 MOL      0.365939
    116 C37         6.4650    1.6500   -0.6310 c         1 MOL      0.161438
    117 O19         6.0320    1.8950    0.5040 o         1 MOL     -0.418082
    118 C38         8.1560   -0.2100   -0.1830 c3        1 MOL     -0.257049
    119 C39         9.3650    0.7570   -0.1840 ca        1 MOL      0.107352
    120 C40         9.4820    1.7600    0.8530 ca        1 MOL     -0.192539
    121 C41        10.0590    0.8590   -1.3860 ca        1 MOL     -0.192539
    122 C42        10.4940    2.7490    0.7260 ca        1 MOL     -0.092461
    123 C43        11.1170    1.7960   -1.4560 ca        1 MOL     -0.092461
    124 C44        11.3780    2.6970   -0.4010 ca        1 MOL     -0.128952
    125 H51         5.3810   -0.5660    0.2460 hn        1 MOL      0.352078
    126 H52         7.1820    0.0820   -2.0550 h1        1 MOL      0.007691
    127 H53         8.5360   -1.1970   -0.4430 hc        1 MOL      0.097280
    128 H54         7.8340   -0.2060    0.8650 hc        1 MOL      0.097280
    129 H55         8.8750    1.7260    1.7440 ha        1 MOL      0.144914
    130 H56         9.6950    0.2790   -2.2150 ha        1 MOL      0.144914
    131 H57        10.7190    3.4840    1.4810 ha        1 MOL      0.099839
    132 H58        11.5970    1.9410   -2.4110 ha        1 MOL      0.099839
    133 H59        12.1770    3.4190   -0.4070 ha        1 MOL      0.108946
    134 N12         6.6950    2.6420   -1.5100 n         1 MOL     -0.021917
    135 C45         6.5780    4.0880   -1.1590 c3        1 MOL      0.147912
    136 C46         5.2600    4.6410   -0.6640 c         1 MOL      0.128549
    137 O20         5.1730    5.8290   -0.2520 o         1 MOL     -0.493216
    138 C47         7.0390    4.8890   -2.3840 c3        1 MOL     -0.159878
    139 C48         7.9450    3.8450   -3.1460 c3        1 MOL     -0.039111
    140 C49         7.2880    2.4910   -2.8330 c3        1 MOL     -0.155926
    141 H60         7.3180    4.1590   -0.3650 h1        1 MOL      0.087866
    142 H61         6.2120    5.0990   -3.0650 hc        1 MOL      0.091132
    143 H62         7.6270    5.7820   -2.1560 hc        1 MOL      0.091132
    144 H63         7.8960    3.9770   -4.2240 hc        1 MOL      0.028844
    145 H64         8.9350    3.8990   -2.6970 hc        1 MOL      0.028844
    146 H65         6.5060    2.4890   -3.5940 h1        1 MOL      0.091709
    147 H66         7.9500    1.6250   -2.8740 h1        1 MOL      0.091709
    148 N13         4.1960    3.9010   -0.6050 n         1 MOL     -0.112917
    149 C50         2.9640    4.3130    0.1750 c3        1 MOL     -0.152271
    150 C51         3.2000    4.7320    1.6170 c         1 MOL      0.651153
    151 O21         2.5100    5.6640    1.9230 o         1 MOL     -0.549119
    152 C52         1.9850    3.1710    0.0430 c3        1 MOL     -0.098910
    153 C53         2.0790    2.0090    1.0530 c3        1 MOL      0.086808
    154 C54         1.2750    0.8010    0.6290 c         1 MOL      0.558747
    155 O22         1.7890   -0.0800   -0.1110 o         1 MOL     -0.661897
    156 O23         0.0340    0.7010    0.8910 o         1 MOL     -0.661897
    157 H67         4.2810    2.9650   -0.9750 hn        1 MOL      0.181893
    158 H68         2.5840    5.1810   -0.3770 h1        1 MOL      0.138291
    159 H69         2.0770    2.7010   -0.9390 hc        1 MOL      0.058664
    160 H70         1.0200    3.6660    0.1270 hc        1 MOL      0.058664
    161 H71         1.7050    2.3170    2.0300 hc        1 MOL     -0.026219
    162 H72         3.1370    1.7130    1.0910 hc        1 MOL     -0.026219
    163 N14         4.2310    4.2710    2.3620 n         1 MOL     -0.230330
    164 C55         4.4990    4.8040    3.7000 c3        1 MOL     -0.253704
    165 H73         3.6200    4.6650    4.3290 h1        1 MOL      0.104397
    166 H74         5.3460    4.2770    4.1400 h1        1 MOL      0.104397
    167 H75         4.7290    5.8670    3.6290 h1        1 MOL      0.104397
    168 H76         4.7360    3.4680    2.0030 hn        1 MOL      0.196001
    169 Ca1        -0.3740   -1.3740   -0.7110 Ca        1 MOL      1.684745
    170 O24         0.4490   -1.1930   -3.2020 oh        1 MOL     -0.933729
    171 H77         1.2170   -1.1280   -3.7610 ho        1 MOL      0.440313
    172 H78        -0.2700   -0.8560   -3.7390 ho        1 MOL      0.440313
    173 O25        -2.3990   -1.2980    0.9650 oh        1 MOL     -0.933729
    174 H79        -2.3320   -0.5010    1.5010 ho        1 MOL      0.440313
    175 H80        -3.3300   -1.3770    0.7690 ho        1 MOL      0.440313
@<TRIPOS>BOND
     1    1    2 1   
     2    1    4 1   
     3    1    5 1   
     4    1    6 1   
     5    2    3 2   
     6    2    7 1   
     7    7    8 1   
     8    7   15 1   
     9    8    9 1   
    10    8   11 1   
    11    8   16 1   
    12    9   10 2   
    13    9   19 1   
    14   11   12 1   
    15   11   17 1   
    16   11   18 1   
    17   12   13 1   
    18   12   14 1   
    19   19   20 1   
    20   19   24 1   
    21   20   21 1   
    22   20   23 1   
    23   20   25 1   
    24   21   22 2   
    25   21   29 1   
    26   23   26 1   
    27   23   27 1   
    28   23   28 1   
    29   29   30 1   
    30   29   37 1   
    31   30   31 1   
    32   30   33 1   
    33   30   38 1   
    34   31   32 2   
    35   31   41 1   
    36   33   34 1   
    37   33   39 1   
    38   33   40 1   
    39   34   35 1   
    40   34   36 1   
    41   41   42 1   
    42   41   45 1   
    43   42   43 1   
    44   42   46 1   
    45   42   47 1   
    46   43   44 2   
    47   43   48 1   
    48   48   49 1   
    49   48   56 1   
    50   49   50 1   
    51   49   52 1   
    52   49   57 1   
    53   50   51 2   
    54   50   62 1   
    55   52   53 1   
    56   52   58 1   
    57   52   59 1   
    58   53   54 1   
    59   53   55 2   
    60   54   60 1   
    61   54   61 1   
    62   62   63 1   
    63   62   66 1   
    64   63   64 1   
    65   63   67 1   
    66   63   68 1   
    67   64   65 2   
    68   64   69 1   
    69   69   70 1   
    70   69   76 1   
    71   70   71 1   
    72   70   73 1   
    73   70   77 1   
    74   71   72 2   
    75   71   83 1   
    76   73   74 1   
    77   73   75 1   
    78   73   78 1   
    79   74   80 1   
    80   74   81 1   
    81   74   82 1   
    82   75   79 1   
    83   83   84 1   
    84   83   91 1   
    85   84   85 1   
    86   84   87 1   
    87   84   92 1   
    88   85   86 2   
    89   85  102 1   
    90   87   88 1   
    91   87   89 1   
    92   87   93 1   
    93   88   90 1   
    94   88   94 1   
    95   88   95 1   
    96   89   96 1   
    97   89   97 1   
    98   89   98 1   
    99   90   99 1   
   100   90  100 1   
   101   90  101 1   
   102  102  103 1   
   103  102  110 1   
   104  103  104 1   
   105  103  106 1   
   106  103  111 1   
   107  104  105 2   
   108  104  114 1   
   109  106  107 1   
   110  106  112 1   
   111  106  113 1   
   112  107  108 1   
   113  107  109 1   
   114  114  115 1   
   115  114  125 1   
   116  115  116 1   
   117  115  118 1   
   118  115  126 1   
   119  116  117 2   
   120  116  134 1   
   121  118  119 1   
   122  118  127 1   
   123  118  128 1   
   124  119  120 ar  
   125  119  121 ar  
   126  120  122 ar  
   127  120  129 1   
   128  121  123 ar  
   129  121  130 1   
   130  122  124 ar  
   131  122  131 1   
   132  123  124 ar  
   133  123  132 1   
   134  124  133 1   
   135  134  135 1   
   136  134  140 1   
   137  135  136 1   
   138  135  138 1   
   139  135  141 1   
   140  136  137 2   
   141  136  148 1   
   142  138  139 1   
   143  138  142 1   
   144  138  143 1   
   145  139  140 1   
   146  139  144 1   
   147  139  145 1   
   148  140  146 1   
   149  140  147 1   
   150  148  149 1   
   151  148  157 1   
   152  149  150 1   
   153  149  152 1   
   154  149  158 1   
   155  150  151 2   
   156  150  163 1   
   157  152  153 1   
   158  152  159 1   
   159  152  160 1   
   160  153  154 1   
   161  153  161 1   
   162  153  162 1   
   163  154  155 1   
   164  154  156 1   
   165  163  164 1   
   166  163  168 1   
   167  164  165 1   
   168  164  166 1   
   169  164  167 1   
   170  170  171 1   
   171  170  172 1   
   172  173  174 1   
   173  173  175 1   
@<TRIPOS>SUBSTRUCTURE
     1 MOL         1 TEMP              0 ****  ****    0 ROOT
