@<TRIPOS>MOLECULE
MOL
  189   185     1     0     0
SMALL
resp


@<TRIPOS>ATOM
      1 C1          4.9910    4.2670   -3.2910 c3        1 MOL     -0.580768
      2 C2          5.5870    3.3000   -2.2520 c         1 MOL      0.776203
      3 O1          4.8820    2.9600   -1.2790 o         1 MOL     -0.677069
      4 H1          5.6780    4.3640   -4.1320 hc        1 MOL      0.148114
      5 H2          4.0370    3.8780   -3.6450 hc        1 MOL      0.148114
      6 H3          4.8380    5.2440   -2.8330 hc        1 MOL      0.148114
      7 N1          6.7890    2.7700   -2.4610 n         1 MOL     -0.714265
      8 C3          7.3140    1.5540   -1.8010 c3        1 MOL      0.422869
      9 C4          6.3230    0.2820   -1.6780 c         1 MOL      0.088589
     10 O2          5.8830    0.0190   -0.5560 o         1 MOL     -0.371553
     11 C5          8.2970    1.7790   -0.6080 c3        1 MOL     -0.176179
     12 C6          7.8590    2.6350    0.5430 c         1 MOL      0.701989
     13 O3          6.6620    2.9470    0.7380 o         1 MOL     -0.701950
     14 O4          8.7520    3.0050    1.3400 o         1 MOL     -0.701950
     15 H4          7.2950    3.2550   -3.1900 hn        1 MOL      0.347388
     16 H5          7.9780    1.2460   -2.6060 h1        1 MOL     -0.038317
     17 H6          9.1090    2.2890   -1.1180 hc        1 MOL      0.022978
     18 H7          8.6400    0.8370   -0.1790 hc        1 MOL      0.022978
     19 N2          5.9130   -0.3810   -2.7960 n         1 MOL     -0.189582
     20 C7          5.1530   -1.6150   -2.7500 c3        1 MOL      0.130881
     21 C8          5.8660   -2.7820   -1.9250 c         1 MOL      0.290699
     22 O5          6.4790   -3.6910   -2.5340 o         1 MOL     -0.536572
     23 C9          3.5920   -1.4790   -2.5520 c3        1 MOL      0.042457
     24 C10         2.9530   -2.6830   -3.3220 c3        1 MOL      0.146737
     25 C11         3.0180   -0.1720   -3.0630 c3        1 MOL     -0.253255
     26 C12         2.8160   -2.5480   -4.8400 c3        1 MOL     -0.250202
     27 H8          6.3970   -0.1310   -3.6580 hn        1 MOL      0.222585
     28 H9          5.2930   -2.0100   -3.7620 h1        1 MOL      0.003036
     29 H10         3.3690   -1.7240   -1.5120 hc        1 MOL     -0.097498
     30 H11         2.0210   -3.0310   -2.8740 hc        1 MOL      0.003195
     31 H12         3.6210   -3.5150   -3.1060 hc        1 MOL      0.003195
     32 H13         3.5330    0.1360   -3.9750 hc        1 MOL      0.070435
     33 H14         1.9290   -0.2900   -3.0930 hc        1 MOL      0.070435
     34 H15         3.3540    0.6820   -2.4750 hc        1 MOL      0.070435
     35 H16         1.8710   -2.0550   -5.0830 hc        1 MOL      0.039141
     36 H17         3.5960   -1.9070   -5.2440 hc        1 MOL      0.039141
     37 H18         2.7340   -3.5180   -5.3130 hc        1 MOL      0.039141
     38 N3          5.8790   -2.7630   -0.5740 n         1 MOL      0.009665
     39 C13         6.3140   -3.8490    0.3490 c3        1 MOL     -0.016841
     40 C14         5.3570   -5.0250    0.6120 c         1 MOL      0.583484
     41 O6          5.7620   -6.1950    0.4960 o         1 MOL     -0.612242
     42 C15         6.7920   -3.2700    1.6640 c3        1 MOL     -0.134194
     43 C16         7.8470   -2.1720    1.4700 c         1 MOL      0.690836
     44 O7          8.0070   -1.3140    2.3670 o         1 MOL     -0.683364
     45 O8          8.6160   -2.3080    0.5270 o         1 MOL     -0.683364
     46 H19         5.6160   -1.9290   -0.0850 hn        1 MOL      0.214675
     47 H20         7.1960   -4.3210   -0.1000 h1        1 MOL      0.045801
     48 H21         7.0990   -4.0210    2.3830 hc        1 MOL      0.027214
     49 H22         5.9730   -2.7460    2.1470 hc        1 MOL      0.027214
     50 N4          4.0950   -4.8790    0.8590 n         1 MOL     -0.549315
     51 C17         3.3300   -3.6510    1.2590 c3        1 MOL      0.135505
     52 C18         2.0580   -3.8650    2.1950 c         1 MOL      0.507985
     53 O9          1.6620   -5.0240    2.2530 o         1 MOL     -0.555981
     54 H23         3.6130   -5.6990    1.2150 hn        1 MOL      0.285020
     55 H24         3.0550   -3.2060    0.3070 h1        1 MOL      0.057568
     56 H25         4.0910   -3.1040    1.8110 h1        1 MOL      0.057568
     57 N5          1.3900   -2.8790    2.7980 n         1 MOL     -0.457244
     58 C19         1.7130   -1.4000    2.8530 c3        1 MOL      0.264324
     59 C20         2.0140   -0.8500    1.5050 c         1 MOL      0.090164
     60 O10         3.2250   -0.5580    1.2490 o         1 MOL     -0.640707
     61 C21         2.7080   -1.1130    4.0090 c3        1 MOL     -0.424743
     62 C22         2.9710    0.3890    4.3550 c         1 MOL      0.714484
     63 O11         3.2920    0.6680    5.5900 o         1 MOL     -0.687492
     64 O12         3.1120    1.2460    3.4550 o         1 MOL     -0.687492
     65 H26         0.5180   -3.1750    3.2090 hn        1 MOL      0.273658
     66 H27         0.7750   -0.8750    3.0480 h1        1 MOL      0.095876
     67 H28         3.6960   -1.5470    3.8120 hc        1 MOL      0.104611
     68 H29         2.3290   -1.6450    4.8700 hc        1 MOL      0.104611
     69 N6          1.0500   -0.6270    0.6350 n         1 MOL      0.036854
     70 C23        -0.3640   -0.9930    0.7410 c3        1 MOL      0.080024
     71 C24        -0.4800   -2.4630    0.2430 c         1 MOL      0.204195
     72 O13         0.3840   -2.9490   -0.4320 o         1 MOL     -0.372778
     73 H30         1.3160   -0.1070   -0.1870 hn        1 MOL      0.215150
     74 H31        -1.0660   -0.3890    0.1740 h1        1 MOL     -0.015338
     75 H32        -0.6310   -0.9180    1.8010 h1        1 MOL     -0.015338
     76 N7         -1.6330   -3.1630    0.5500 n         1 MOL     -0.201721
     77 C25        -1.9410   -4.5280    0.0490 c3        1 MOL     -0.131242
     78 C26        -2.5900   -4.4500   -1.3790 c         1 MOL      0.456477
     79 O14        -2.6090   -5.4300   -2.1580 o         1 MOL     -0.499627
     80 C27        -2.8950   -5.2260    1.0380 c3        1 MOL      0.135028
     81 C28        -4.2320   -4.4590    1.2260 c3        1 MOL     -0.456651
     82 C29        -5.0680   -4.9570    2.3730 c         1 MOL      0.759076
     83 N8         -6.3800   -4.5800    2.3170 n         1 MOL     -0.887264
     84 O15        -4.7450   -5.7890    3.2130 o         1 MOL     -0.571283
     85 H33        -2.2930   -2.6710    1.1280 hn        1 MOL      0.240376
     86 H34        -1.0400   -5.1380   -0.0390 h1        1 MOL      0.155443
     87 H35        -2.3850   -5.3310    1.9950 hc        1 MOL      0.020810
     88 H36        -3.0870   -6.2450    0.6950 hc        1 MOL      0.020810
     89 H37        -4.7990   -4.7820    0.3650 hc        1 MOL      0.140077
     90 H38        -4.1050   -3.3790    1.2810 hc        1 MOL      0.140077
     91 H39        -6.6330   -4.0440    1.4990 hn        1 MOL      0.379983
     92 H40        -7.0800   -5.0480    2.8730 hn        1 MOL      0.379983
     93 N9         -3.0010   -3.2110   -1.7170 n         1 MOL     -0.360038
     94 C30        -3.3820   -2.7920   -3.0900 c3        1 MOL     -0.175258
     95 C31        -4.7770   -2.1370   -3.0900 c         1 MOL      0.715406
     96 O16        -5.3260   -1.9610   -4.1810 o         1 MOL     -0.562147
     97 C32        -2.3440   -1.9630   -3.8120 c3        1 MOL      0.088543
     98 C33        -1.0630   -2.7990   -4.0350 c3        1 MOL     -0.159867
     99 C34        -1.9190   -0.7580   -3.0230 c3        1 MOL     -0.159867
    100 H41        -2.9460   -2.4350   -1.0720 hn        1 MOL      0.238699
    101 H42        -3.4020   -3.6970   -3.6990 h1        1 MOL      0.120603
    102 H43        -2.7960   -1.5890   -4.7370 hc        1 MOL      0.025172
    103 H44        -1.3100   -3.6640   -4.6460 hc        1 MOL      0.054831
    104 H45        -0.2710   -2.2410   -4.5160 hc        1 MOL      0.054831
    105 H46        -0.7090   -3.2030   -3.0850 hc        1 MOL      0.054831
    106 H47        -1.1880   -1.0040   -2.2600 hc        1 MOL      0.054831
    107 H48        -1.4540    0.0120   -3.6390 hc        1 MOL      0.054831
    108 H49        -2.8210   -0.3310   -2.5660 hc        1 MOL      0.054831
    109 N10        -5.3620   -1.6830   -1.9330 n         1 MOL     -0.570390
    110 C35        -6.6630   -0.9750   -1.8790 c3        1 MOL      0.061107
    111 C36        -6.5910    0.5520   -1.6280 c         1 MOL      0.613709
    112 O17        -7.4080    1.2890   -2.1730 o         1 MOL     -0.571221
    113 C37        -7.6020   -1.7490   -0.8910 c3        1 MOL     -0.308698
    114 C38        -7.7360   -3.2340   -1.1400 c         1 MOL      0.615979
    115 N11        -8.1420   -3.7250   -2.3580 n         1 MOL     -0.783624
    116 O18        -7.4800   -4.0510   -0.2710 o         1 MOL     -0.524443
    117 H50        -4.8210   -1.5340   -1.0910 hn        1 MOL      0.262993
    118 H51        -7.1490   -1.1430   -2.8430 h1        1 MOL      0.074743
    119 H52        -8.5590   -1.2750   -1.0980 hc        1 MOL      0.107244
    120 H53        -7.4540   -1.6450    0.1880 hc        1 MOL      0.107244
    121 H54        -8.4370   -3.0640   -3.0630 hn        1 MOL      0.375859
    122 H55        -8.2830   -4.7230   -2.4480 hn        1 MOL      0.375859
    123 N12        -5.6950    0.9290   -0.7670 n         1 MOL     -0.402475
    124 C39        -5.6500    2.1790    0.0090 c3        1 MOL     -0.002608
    125 C40        -4.2450    2.7790    0.0440 c         1 MOL      0.474273
    126 O19        -3.3070    2.0530   -0.0940 o         1 MOL     -0.413017
    127 C41        -6.0570    1.7960    1.4430 c3        1 MOL     -0.079209
    128 C42        -7.4830    1.4180    1.5910 ca        1 MOL     -0.015492
    129 C43        -8.5150    2.3390    1.1430 ca        1 MOL     -0.109128
    130 C44        -7.7940    0.1620    2.2570 ca        1 MOL     -0.109128
    131 C45        -9.7750    1.9940    1.5350 ca        1 MOL     -0.265709
    132 C46        -9.0900   -0.1910    2.5220 ca        1 MOL     -0.265709
    133 C47       -10.0920    0.7600    2.2070 ca        1 MOL      0.316764
    134 O20       -11.3840    0.5160    2.5080 oh        1 MOL     -0.470662
    135 H56        -4.9260    0.2920   -0.5970 hn        1 MOL      0.262827
    136 H57        -6.3840    2.8630   -0.4020 h1        1 MOL      0.093244
    137 H58        -5.7790    2.6120    2.1100 hc        1 MOL      0.073814
    138 H59        -5.4090    0.9990    1.8290 hc        1 MOL      0.073814
    139 H60        -8.2300    3.2560    0.6500 ha        1 MOL      0.121645
    140 H61        -7.0060   -0.5360    2.5120 ha        1 MOL      0.121645
    141 H62       -10.4930    2.7790    1.3480 ha        1 MOL      0.145201
    142 H63        -9.4310   -1.0450    3.0940 ha        1 MOL      0.145201
    143 H64       -11.9480    1.1790    2.1060 ho        1 MOL      0.338909
    144 N13        -4.1510    4.0380    0.6140 n         1 MOL     -0.660191
    145 C48        -2.9070    4.8060    1.0330 c3        1 MOL      0.328518
    146 C49        -1.9960    5.1730   -0.1430 c         1 MOL      0.265810
    147 O21        -1.5600    6.3370   -0.3020 o         1 MOL     -0.551693
    148 C50        -2.1800    4.2040    2.1940 c3        1 MOL      0.012171
    149 C51        -3.1000    4.0280    3.4400 c3        1 MOL     -0.407631
    150 C52        -2.2180    3.9070    4.7430 c         1 MOL      0.707550
    151 O22        -2.2120    2.8440    5.4570 o         1 MOL     -0.698290
    152 O23        -1.6540    4.9860    5.1830 o         1 MOL     -0.698290
    153 H65        -5.0130    4.4820    0.8720 hn        1 MOL      0.327559
    154 H66        -3.2570    5.7730    1.3960 h1        1 MOL      0.002568
    155 H67        -1.3660    4.8310    2.5530 hc        1 MOL      0.073029
    156 H68        -1.7690    3.2250    1.9290 hc        1 MOL      0.073029
    157 H69        -3.7900    3.1890    3.3340 hc        1 MOL      0.070934
    158 H70        -3.7800    4.8530    3.6350 hc        1 MOL      0.070934
    159 N14        -1.8320    4.3040   -1.0890 n         1 MOL     -0.063874
    160 C53        -0.8240    4.4850   -2.0900 c3        1 MOL     -0.147648
    161 C54        -1.3490    5.3200   -3.2570 c         1 MOL      0.433146
    162 O24        -0.5730    5.6530   -4.1680 o         1 MOL     -0.571848
    163 C55        -0.3020    3.1210   -2.4400 c3        1 MOL      0.039641
    164 C56         0.1280    2.1390   -1.3480 c3        1 MOL      0.332929
    165 C57         1.1140    2.6370   -0.3270 c         1 MOL      0.500185
    166 O25         0.8660    3.5580    0.4580 o         1 MOL     -0.617857
    167 O26         2.1680    1.9400   -0.1210 o         1 MOL     -0.617857
    168 H71        -2.3410    3.4300   -0.9590 hn        1 MOL      0.126774
    169 H72         0.0050    5.0240   -1.6310 h1        1 MOL      0.164344
    170 H73         0.5300    3.2570   -3.1250 hc        1 MOL     -0.024698
    171 H74        -1.1330    2.6760   -2.9910 hc        1 MOL     -0.024698
    172 H75         0.5340    1.3110   -1.9180 hc        1 MOL     -0.136246
    173 H76        -0.7480    1.8030   -0.7810 hc        1 MOL     -0.136246
    174 N15        -2.5830    5.6300   -3.3360 n         1 MOL     -0.140083
    175 C58        -3.1790    6.3200   -4.5290 c3        1 MOL     -0.185572
    176 H77        -2.3890    6.5700   -5.2360 h1        1 MOL      0.086246
    177 H78        -3.9010    5.6590   -5.0090 h1        1 MOL      0.086246
    178 H79        -3.6800    7.2340   -4.2080 h1        1 MOL      0.086246
    179 H80        -3.1750    5.3150   -2.5850 hn        1 MOL      0.155865
    180 Ca1         4.4650    1.7450    1.1430 Ca        1 MOL      1.807436
    181 O27         4.9920    3.3480    3.2430 oh        1 MOL     -0.843232
    182 H81         4.7350    3.1520    4.1410 ho        1 MOL      0.401728
    183 H82         4.9150    4.3030    3.1680 ho        1 MOL      0.401728
    184 O28         3.5410    4.2840    0.7880 oh        1 MOL     -0.843232
    185 H83         2.5880    4.2890    0.6760 ho        1 MOL      0.401728
    186 H84         3.8830    4.6810   -0.0140 ho        1 MOL      0.401728
    187 O29         6.0020    0.5730    2.7980 oh        1 MOL     -0.843232
    188 H85         6.0020    0.4750    3.7530 ho        1 MOL      0.401728
    189 H86         6.7690    0.0750    2.5000 ho        1 MOL      0.401728
@<TRIPOS>BOND
     1    1    2 1   
     2    1    4 1   
     3    1    5 1   
     4    1    6 1   
     5    2    3 2   
     6    2    7 1   
     7    7    8 1   
     8    7   15 1   
     9    8    9 1   
    10    8   11 1   
    11    8   16 1   
    12    9   10 2   
    13    9   19 1   
    14   11   12 1   
    15   11   17 1   
    16   11   18 1   
    17   12   13 1   
    18   12   14 1   
    19   19   20 1   
    20   19   27 1   
    21   20   21 1   
    22   20   23 1   
    23   20   28 1   
    24   21   22 2   
    25   21   38 1   
    26   23   24 1   
    27   23   25 1   
    28   23   29 1   
    29   24   26 1   
    30   24   30 1   
    31   24   31 1   
    32   25   32 1   
    33   25   33 1   
    34   25   34 1   
    35   26   35 1   
    36   26   36 1   
    37   26   37 1   
    38   38   39 1   
    39   38   46 1   
    40   39   40 1   
    41   39   42 1   
    42   39   47 1   
    43   40   41 2   
    44   40   50 1   
    45   42   43 1   
    46   42   48 1   
    47   42   49 1   
    48   43   44 1   
    49   43   45 1   
    50   50   51 1   
    51   50   54 1   
    52   51   52 1   
    53   51   55 1   
    54   51   56 1   
    55   52   53 2   
    56   52   57 1   
    57   57   58 1   
    58   57   65 1   
    59   58   59 1   
    60   58   61 1   
    61   58   66 1   
    62   59   60 2   
    63   59   69 1   
    64   61   62 1   
    65   61   67 1   
    66   61   68 1   
    67   62   63 1   
    68   62   64 1   
    69   69   70 1   
    70   69   73 1   
    71   70   71 1   
    72   70   74 1   
    73   70   75 1   
    74   71   72 2   
    75   71   76 1   
    76   76   77 1   
    77   76   85 1   
    78   77   78 1   
    79   77   80 1   
    80   77   86 1   
    81   78   79 2   
    82   78   93 1   
    83   80   81 1   
    84   80   87 1   
    85   80   88 1   
    86   81   82 1   
    87   81   89 1   
    88   81   90 1   
    89   82   83 1   
    90   82   84 2   
    91   83   91 1   
    92   83   92 1   
    93   93   94 1   
    94   93  100 1   
    95   94   95 1   
    96   94   97 1   
    97   94  101 1   
    98   95   96 2   
    99   95  109 1   
   100   97   98 1   
   101   97   99 1   
   102   97  102 1   
   103   98  103 1   
   104   98  104 1   
   105   98  105 1   
   106   99  106 1   
   107   99  107 1   
   108   99  108 1   
   109  109  110 1   
   110  109  117 1   
   111  110  111 1   
   112  110  113 1   
   113  110  118 1   
   114  111  112 2   
   115  111  123 1   
   116  113  114 1   
   117  113  119 1   
   118  113  120 1   
   119  114  115 1   
   120  114  116 2   
   121  115  121 1   
   122  115  122 1   
   123  123  124 1   
   124  123  135 1   
   125  124  125 1   
   126  124  127 1   
   127  124  136 1   
   128  125  126 2   
   129  125  144 1   
   130  127  128 1   
   131  127  137 1   
   132  127  138 1   
   133  128  129 ar  
   134  128  130 ar  
   135  129  131 ar  
   136  129  139 1   
   137  130  132 ar  
   138  130  140 1   
   139  131  133 ar  
   140  131  141 1   
   141  132  133 ar  
   142  132  142 1   
   143  133  134 1   
   144  134  143 1   
   145  144  145 1   
   146  144  153 1   
   147  145  146 1   
   148  145  148 1   
   149  145  154 1   
   150  146  147 2   
   151  146  159 1   
   152  148  149 1   
   153  148  155 1   
   154  148  156 1   
   155  149  150 1   
   156  149  157 1   
   157  149  158 1   
   158  150  151 1   
   159  150  152 1   
   160  159  160 1   
   161  159  168 1   
   162  160  161 1   
   163  160  163 1   
   164  160  169 1   
   165  161  162 2   
   166  161  174 1   
   167  163  164 1   
   168  163  170 1   
   169  163  171 1   
   170  164  165 1   
   171  164  172 1   
   172  164  173 1   
   173  165  166 1   
   174  165  167 1   
   175  174  175 1   
   176  174  179 1   
   177  175  176 1   
   178  175  177 1   
   179  175  178 1   
   180  181  182 1   
   181  181  183 1   
   182  184  185 1   
   183  184  186 1   
   184  187  188 1   
   185  187  189 1   
@<TRIPOS>SUBSTRUCTURE
     1 MOL         1 TEMP              0 ****  ****    0 ROOT
