@<TRIPOS>MOLECULE
MOL
  181   177     1     0     0
SMALL
resp


@<TRIPOS>ATOM
      1 C1        -10.9980    6.4210   -0.5800 c3        1 MOL     -0.307105
      2 C2        -10.2270    5.2520   -1.0200 c         1 MOL      0.559818
      3 O1         -9.4580    5.3990   -1.9690 o         1 MOL     -0.514308
      4 H1        -11.9540    6.0930   -0.1720 hc        1 MOL      0.087690
      5 H2        -10.4400    6.9560    0.1890 hc        1 MOL      0.087690
      6 H3        -11.1730    7.0830   -1.4290 hc        1 MOL      0.087690
      7 N1        -10.1020    4.0800   -0.3380 n         1 MOL     -0.353917
      8 C3        -10.7000    3.6140    0.8980 c3        1 MOL      0.171115
      9 C4        -10.9350    2.0080    0.7930 c         1 MOL      0.515920
     10 O2        -10.0950    1.1970    1.1820 o         1 MOL     -0.496025
     11 C5         -9.9180    4.0620    2.1690 c3        1 MOL     -0.372158
     12 C6         -8.4890    3.5860    2.3930 c         1 MOL      0.835358
     13 O3         -7.7940    4.2050    3.2620 o         1 MOL     -0.709374
     14 O4         -7.9020    2.8350    1.5800 o         1 MOL     -0.709374
     15 H4         -9.5080    3.3770   -0.7360 hn        1 MOL      0.215679
     16 H5        -11.6990    4.0570    0.9570 h1        1 MOL      0.016580
     17 H6        -10.5470    3.8080    3.0240 hc        1 MOL      0.065244
     18 H7         -9.9570    5.1580    2.1020 hc        1 MOL      0.065244
     19 N2        -12.0910    1.5030    0.3170 n         1 MOL     -0.556375
     20 C7        -12.5190    0.1170    0.3390 c3        1 MOL      0.320100
     21 C8        -11.9120   -0.8490   -0.7590 c         1 MOL      0.356755
     22 O5        -12.3890   -1.9750   -1.0510 o         1 MOL     -0.536470
     23 C9        -14.0650    0.0830    0.4370 c3        1 MOL     -0.372943
     24 H8        -12.8150    2.1420    0.0300 hn        1 MOL      0.271886
     25 H9        -12.1820   -0.4170    1.2260 h1        1 MOL      0.028767
     26 H10       -14.3370    0.5310    1.4010 hc        1 MOL      0.101630
     27 H11       -14.5880    0.6160   -0.3600 hc        1 MOL      0.101630
     28 H12       -14.4930   -0.9160    0.4420 hc        1 MOL      0.101630
     29 N3        -10.7460   -0.3950   -1.2880 n         1 MOL     -0.212906
     30 C10        -9.9140   -1.2160   -2.2200 c3        1 MOL      0.008706
     31 C11        -8.9600   -2.1910   -1.4950 c         1 MOL      0.371826
     32 O6         -8.3150   -1.8670   -0.4790 o         1 MOL     -0.416662
     33 C12        -9.0900   -0.3370   -3.2170 c3        1 MOL     -0.086846
     34 C13        -8.3780    0.8040   -2.5140 c         1 MOL      0.714655
     35 O7         -8.1440    0.7290   -1.2700 o         1 MOL     -0.667882
     36 O8         -8.0380    1.8250   -3.1930 o         1 MOL     -0.667882
     37 H13       -10.3600    0.4510   -0.8950 hn        1 MOL      0.100258
     38 H14       -10.6410   -1.7820   -2.8070 h1        1 MOL      0.076005
     39 H15        -9.7520    0.1190   -3.9610 hc        1 MOL      0.022315
     40 H16        -8.3940   -0.9220   -3.8060 hc        1 MOL      0.022315
     41 N4         -8.7190   -3.3860   -2.0650 n         1 MOL     -0.351446
     42 C14        -7.6920   -4.3410   -1.4920 c3        1 MOL     -0.071045
     43 C15        -6.2380   -4.0700   -1.8890 c         1 MOL      0.515018
     44 O9         -5.5670   -4.9560   -2.4100 o         1 MOL     -0.527740
     45 H17        -9.1780   -3.7030   -2.9080 hn        1 MOL      0.293963
     46 H18        -7.8870   -5.3350   -1.9000 h1        1 MOL      0.074602
     47 H19        -7.8640   -4.3280   -0.4220 h1        1 MOL      0.074602
     48 N5         -5.8360   -2.8030   -1.7750 n         1 MOL     -0.040036
     49 C16        -4.5960   -2.2130   -2.2350 c3        1 MOL     -0.285065
     50 C17        -3.4380   -2.3610   -1.2130 c         1 MOL      0.763895
     51 O10        -3.6520   -2.7200   -0.0370 o         1 MOL     -0.519738
     52 C18        -4.9910   -0.7500   -2.7170 c3        1 MOL     -0.262723
     53 C19        -4.9180    0.1480   -1.5970 c         1 MOL      0.580359
     54 N6         -4.0220    1.0970   -1.7420 n         1 MOL     -0.707776
     55 O11        -5.6050    0.0580   -0.5920 o         1 MOL     -0.481977
     56 H20        -6.3890   -2.2100   -1.1670 hn        1 MOL     -0.073356
     57 H21        -4.3180   -2.7130   -3.1670 h1        1 MOL      0.157388
     58 H22        -6.0160   -0.7230   -3.0810 hc        1 MOL      0.118398
     59 H23        -4.3170   -0.3570   -3.4870 hc        1 MOL      0.118398
     60 H24        -3.4770    1.1060   -2.5930 hn        1 MOL      0.367230
     61 H25        -3.7560    1.6430   -0.9280 hn        1 MOL      0.367230
     62 N7         -2.2560   -2.2610   -1.8370 n         1 MOL     -0.728486
     63 C20        -0.9270   -2.4720   -1.1280 c3        1 MOL      0.186998
     64 C21        -0.9050   -3.9420   -0.6090 c         1 MOL      0.482178
     65 O12        -1.5290   -4.8580   -1.0830 o         1 MOL     -0.503228
     66 H26        -2.1260   -1.9670   -2.7920 hn        1 MOL      0.383593
     67 H27        -0.7820   -1.7740   -0.3040 h1        1 MOL      0.037747
     68 H28        -0.1490   -2.2320   -1.8520 h1        1 MOL      0.037747
     69 N8         -0.2990   -4.1510    0.5730 n         1 MOL     -0.456575
     70 C22         0.4710   -3.2630    1.4340 c3        1 MOL     -0.087418
     71 C23         1.5830   -2.4730    0.6610 c         1 MOL      0.613111
     72 O13         1.9490   -2.7460   -0.4610 o         1 MOL     -0.559937
     73 C24         1.0640   -4.0450    2.6640 c3        1 MOL      0.287127
     74 C25        -0.1710   -4.5930    3.3830 c3        1 MOL     -0.289648
     75 O14         1.9440   -5.0710    2.2120 oh        1 MOL     -0.542836
     76 H29        -0.3650   -5.1340    0.7890 hn        1 MOL      0.339431
     77 H30        -0.2190   -2.4600    1.7090 h1        1 MOL      0.072867
     78 H31         1.5590   -3.3970    3.3850 h1        1 MOL      0.056845
     79 H32         2.7070   -4.9020    2.7770 ho        1 MOL      0.383633
     80 H33         0.1150   -4.9680    4.3700 hc        1 MOL      0.065841
     81 H34        -0.8280   -3.7910    3.7060 hc        1 MOL      0.065841
     82 H35        -0.6910   -5.3610    2.8130 hc        1 MOL      0.065841
     83 N9          1.9900   -1.3940    1.3160 n         1 MOL     -0.390269
     84 C26         3.1520   -0.6370    0.8710 c3        1 MOL      0.001796
     85 C27         4.2430   -0.7060    1.9320 c         1 MOL      0.293007
     86 O15         4.0040   -0.3390    3.0940 o         1 MOL     -0.520149
     87 C28         2.7480    0.8340    0.5190 c3        1 MOL      0.313384
     88 C29         1.5520    0.9530   -0.4030 c3        1 MOL      0.120479
     89 C30         3.9060    1.5880   -0.1100 c3        1 MOL     -0.432060
     90 C31         0.1740    1.0760    0.3050 c3        1 MOL     -0.145642
     91 H36         1.5730   -1.1430    2.1980 hn        1 MOL      0.217856
     92 H37         3.5050   -1.1210   -0.0360 h1        1 MOL      0.098538
     93 H38         2.4360    1.4220    1.3810 hc        1 MOL     -0.014608
     94 H39         1.5920    0.1520   -1.1340 hc        1 MOL     -0.044773
     95 H40         1.5910    1.8280   -1.0580 hc        1 MOL     -0.044773
     96 H41         3.6800    2.6530   -0.1810 hc        1 MOL      0.100373
     97 H42         4.7070    1.6490    0.6230 hc        1 MOL      0.100373
     98 H43         4.1790    1.0290   -1.0030 hc        1 MOL      0.100373
     99 H44         0.1390    1.9830    0.9000 hc        1 MOL      0.011841
    100 H45        -0.5950    1.2690   -0.4560 hc        1 MOL      0.011841
    101 H46        -0.0870    0.2260    0.9270 hc        1 MOL      0.011841
    102 N10         5.4670   -1.0990    1.6910 n         1 MOL     -0.193775
    103 C32         6.1510   -1.4230    0.4460 c3        1 MOL     -0.073892
    104 C33         7.6560   -1.0370    0.5300 c         1 MOL      0.485104
    105 O16         8.1270   -0.6850    1.6090 o         1 MOL     -0.494512
    106 C34         5.9910   -2.8850    0.1330 c3        1 MOL     -0.187651
    107 C35         6.8380   -3.7850    1.0550 c         1 MOL      0.743135
    108 O17         6.3710   -3.8360    2.2110 o         1 MOL     -0.719763
    109 O18         7.8640   -4.3710    0.6720 o         1 MOL     -0.719763
    110 H47         5.9600   -1.4840    2.4860 hn        1 MOL      0.303129
    111 H48         5.7920   -0.7840   -0.3690 h1        1 MOL      0.083973
    112 H49         6.2740   -3.2470   -0.8540 hc        1 MOL      0.015748
    113 H50         4.9150   -3.0880    0.1820 hc        1 MOL      0.015748
    114 N11         8.4240   -0.9670   -0.5670 n         1 MOL     -0.620837
    115 C36         9.8480   -0.7740   -0.5400 c3        1 MOL      0.441064
    116 C37        10.2810   -0.3010   -1.9790 c         1 MOL      0.152716
    117 O19         9.7360   -0.8780   -2.9540 o         1 MOL     -0.499863
    118 C38        10.4130   -2.1260   -0.1480 c3        1 MOL     -0.039356
    119 C39        11.9480   -1.9980    0.1290 ca        1 MOL     -0.009808
    120 C40        12.8580   -2.1000   -0.9240 ca        1 MOL     -0.142417
    121 C41        12.2960   -1.4680    1.3990 ca        1 MOL     -0.142417
    122 C42        14.1320   -1.6960   -0.7170 ca        1 MOL     -0.068053
    123 C43        13.6100   -1.0460    1.5680 ca        1 MOL     -0.068053
    124 C44        14.4890   -1.1430    0.5030 ca        1 MOL     -0.197352
    125 H51         7.8810   -1.0720   -1.4190 hn        1 MOL      0.321179
    126 H52        10.1240   -0.0470    0.2210 h1        1 MOL      0.029792
    127 H53        10.1960   -2.8680   -0.9070 hc        1 MOL      0.068198
    128 H54        10.0120   -2.5940    0.7560 hc        1 MOL      0.068198
    129 H55        12.5660   -2.4470   -1.9080 ha        1 MOL      0.118595
    130 H56        11.5580   -1.2000    2.1390 ha        1 MOL      0.118595
    131 H57        14.8580   -1.6520   -1.5150 ha        1 MOL      0.089078
    132 H58        13.9850   -0.5470    2.4430 ha        1 MOL      0.089078
    133 H59        15.4860   -0.7720    0.7110 ha        1 MOL      0.095783
    134 N12        11.1610    0.6940   -2.1480 n         1 MOL      0.070458
    135 C45        11.7320    1.4830   -1.0820 c3        1 MOL     -0.095478
    136 C46        10.7520    2.4190   -0.3030 c         1 MOL      0.441181
    137 O20        11.0860    2.8920    0.7500 o         1 MOL     -0.526105
    138 C47        12.7560    2.3080   -1.8690 c3        1 MOL     -0.092247
    139 C48        12.2790    2.5560   -3.2980 c3        1 MOL      0.126163
    140 C49        11.6340    1.1370   -3.5420 c3        1 MOL     -0.442532
    141 H60        12.1400    0.8050   -0.3370 h1        1 MOL      0.099763
    142 H61        12.9500    3.2940   -1.4540 hc        1 MOL      0.033574
    143 H62        13.6380    1.6810   -1.9320 hc        1 MOL      0.033574
    144 H63        11.5320    3.3500   -3.3530 hc        1 MOL      0.002889
    145 H64        13.1710    2.7520   -3.8970 hc        1 MOL      0.002889
    146 H65        10.8660    1.3290   -4.2880 h1        1 MOL      0.164626
    147 H66        12.4300    0.4800   -3.8860 h1        1 MOL      0.164626
    148 N13         9.5880    2.7280   -0.8740 n         1 MOL     -0.211760
    149 C50         8.6000    3.6810   -0.3780 c3        1 MOL      0.200478
    150 C51         8.2170    4.7330   -1.4550 c         1 MOL      0.389060
    151 O21         8.5010    4.4090   -2.6240 o         1 MOL     -0.599351
    152 C52         7.3830    2.9040    0.1760 c3        1 MOL     -0.344507
    153 C53         7.5420    2.3450    1.5630 c3        1 MOL      0.075742
    154 C54         7.1350    3.2960    2.6750 c         1 MOL      0.615638
    155 O22         6.3040    3.0100    3.5840 o         1 MOL     -0.678434
    156 O23         7.8770    4.3180    2.7650 o         1 MOL     -0.678434
    157 H67         9.2830    2.2980   -1.7420 hn        1 MOL      0.250900
    158 H68         9.0410    4.2600    0.4270 h1        1 MOL      0.050809
    159 H69         7.1410    2.0740   -0.4880 hc        1 MOL      0.060873
    160 H70         6.5300    3.5750    0.1410 hc        1 MOL      0.060873
    161 H71         8.5730    2.0280    1.7230 hc        1 MOL      0.004658
    162 H72         6.9750    1.4120    1.6310 hc        1 MOL      0.004658
    163 N14         7.6840    5.8940   -1.2020 n         1 MOL     -0.286343
    164 C55         7.3170    6.5150    0.0850 c3        1 MOL     -0.141263
    165 H73         6.3390    6.1500    0.3990 h1        1 MOL      0.085687
    166 H74         8.0590    6.2560    0.8390 h1        1 MOL      0.085687
    167 H75         7.2800    7.5980   -0.0310 h1        1 MOL      0.085687
    168 H76         7.7250    6.4370   -2.0490 hn        1 MOL      0.241453
    169 Ca1        -7.6550    0.2980    1.2050 Ca        1 MOL      1.648515
    170 O24        -6.1790   -1.7640    1.6680 oh        1 MOL     -0.837016
    171 H77        -5.4200   -1.9100    1.1120 ho        1 MOL      0.405737
    172 H78        -6.4830   -2.6430    1.8930 ho        1 MOL      0.405737
    173 O25        -9.3220   -1.3990    2.5580 oh        1 MOL     -0.837016
    174 H79        -9.1330   -2.3420    2.5830 ho        1 MOL      0.405737
    175 H80        -9.9390   -1.2680    3.2740 ho        1 MOL      0.405737
    176 O26        -5.4810    1.4780    2.1710 oh        1 MOL     -0.837016
    177 H81        -4.6030    1.0990    2.1590 ho        1 MOL      0.405737
    178 H82        -5.5660    1.8770    3.0340 ho        1 MOL      0.405737
    179 O27        -7.5670    0.5900    3.9030 oh        1 MOL     -0.837016
    180 H83        -8.2660    0.6080    4.5460 ho        1 MOL      0.405737
    181 H84        -6.8260    0.2100    4.3620 ho        1 MOL      0.405737
@<TRIPOS>BOND
     1    1    2 1   
     2    1    4 1   
     3    1    5 1   
     4    1    6 1   
     5    2    3 2   
     6    2    7 1   
     7    7    8 1   
     8    7   15 1   
     9    8    9 1   
    10    8   11 1   
    11    8   16 1   
    12    9   10 2   
    13    9   19 1   
    14   11   12 1   
    15   11   17 1   
    16   11   18 1   
    17   12   13 1   
    18   12   14 1   
    19   19   20 1   
    20   19   24 1   
    21   20   21 1   
    22   20   23 1   
    23   20   25 1   
    24   21   22 2   
    25   21   29 1   
    26   23   26 1   
    27   23   27 1   
    28   23   28 1   
    29   29   30 1   
    30   29   37 1   
    31   30   31 1   
    32   30   33 1   
    33   30   38 1   
    34   31   32 2   
    35   31   41 1   
    36   33   34 1   
    37   33   39 1   
    38   33   40 1   
    39   34   35 1   
    40   34   36 1   
    41   41   42 1   
    42   41   45 1   
    43   42   43 1   
    44   42   46 1   
    45   42   47 1   
    46   43   44 2   
    47   43   48 1   
    48   48   49 1   
    49   48   56 1   
    50   49   50 1   
    51   49   52 1   
    52   49   57 1   
    53   50   51 2   
    54   50   62 1   
    55   52   53 1   
    56   52   58 1   
    57   52   59 1   
    58   53   54 1   
    59   53   55 2   
    60   54   60 1   
    61   54   61 1   
    62   62   63 1   
    63   62   66 1   
    64   63   64 1   
    65   63   67 1   
    66   63   68 1   
    67   64   65 2   
    68   64   69 1   
    69   69   70 1   
    70   69   76 1   
    71   70   71 1   
    72   70   73 1   
    73   70   77 1   
    74   71   72 2   
    75   71   83 1   
    76   73   74 1   
    77   73   75 1   
    78   73   78 1   
    79   74   80 1   
    80   74   81 1   
    81   74   82 1   
    82   75   79 1   
    83   83   84 1   
    84   83   91 1   
    85   84   85 1   
    86   84   87 1   
    87   84   92 1   
    88   85   86 2   
    89   85  102 1   
    90   87   88 1   
    91   87   89 1   
    92   87   93 1   
    93   88   90 1   
    94   88   94 1   
    95   88   95 1   
    96   89   96 1   
    97   89   97 1   
    98   89   98 1   
    99   90   99 1   
   100   90  100 1   
   101   90  101 1   
   102  102  103 1   
   103  102  110 1   
   104  103  104 1   
   105  103  106 1   
   106  103  111 1   
   107  104  105 2   
   108  104  114 1   
   109  106  107 1   
   110  106  112 1   
   111  106  113 1   
   112  107  108 1   
   113  107  109 1   
   114  114  115 1   
   115  114  125 1   
   116  115  116 1   
   117  115  118 1   
   118  115  126 1   
   119  116  117 2   
   120  116  134 1   
   121  118  119 1   
   122  118  127 1   
   123  118  128 1   
   124  119  120 ar  
   125  119  121 ar  
   126  120  122 ar  
   127  120  129 1   
   128  121  123 ar  
   129  121  130 1   
   130  122  124 ar  
   131  122  131 1   
   132  123  124 ar  
   133  123  132 1   
   134  124  133 1   
   135  134  135 1   
   136  134  140 1   
   137  135  136 1   
   138  135  138 1   
   139  135  141 1   
   140  136  137 2   
   141  136  148 1   
   142  138  139 1   
   143  138  142 1   
   144  138  143 1   
   145  139  140 1   
   146  139  144 1   
   147  139  145 1   
   148  140  146 1   
   149  140  147 1   
   150  148  149 1   
   151  148  157 1   
   152  149  150 1   
   153  149  152 1   
   154  149  158 1   
   155  150  151 2   
   156  150  163 1   
   157  152  153 1   
   158  152  159 1   
   159  152  160 1   
   160  153  154 1   
   161  153  161 1   
   162  153  162 1   
   163  154  155 1   
   164  154  156 1   
   165  163  164 1   
   166  163  168 1   
   167  164  165 1   
   168  164  166 1   
   169  164  167 1   
   170  170  171 1   
   171  170  172 1   
   172  173  174 1   
   173  173  175 1   
   174  176  177 1   
   175  176  178 1   
   176  179  180 1   
   177  179  181 1   
@<TRIPOS>SUBSTRUCTURE
     1 MOL         1 TEMP              0 ****  ****    0 ROOT
