@<TRIPOS>MOLECULE
MOL
  195   189     1     0     0
SMALL
resp


@<TRIPOS>ATOM
      1 C1          4.8510    0.4930    6.5790 c3        1 MOL     -0.238510
      2 C2          4.6570    0.5340    5.0740 c         1 MOL      0.683900
      3 O1          4.3540    1.6300    4.4850 o         1 MOL     -0.602277
      4 H1          4.3980   -0.4140    6.9790 hc        1 MOL      0.062038
      5 H2          5.9170    0.4980    6.8100 hc        1 MOL      0.062038
      6 H3          4.3770    1.3650    7.0310 hc        1 MOL      0.062038
      7 N1          4.9640   -0.5270    4.3860 n         1 MOL     -0.444993
      8 C3          4.7750   -0.7880    2.9490 c3        1 MOL      0.373233
      9 C4          3.3650   -0.8380    2.2790 c         1 MOL      0.096807
     10 O2          3.2220   -1.3400    1.1610 o         1 MOL     -0.313002
     11 C5          5.4430   -2.1160    2.5590 c3        1 MOL     -0.334547
     12 C6          6.9270   -2.2170    2.9680 c         1 MOL      0.651686
     13 O3          7.8770   -2.1980    2.0810 o         1 MOL     -0.660843
     14 O4          7.2800   -2.3510    4.1950 o         1 MOL     -0.660843
     15 H4          5.2950   -1.3330    4.8960 hn        1 MOL      0.206861
     16 H5          5.2520    0.0390    2.4250 h1        1 MOL      0.059302
     17 H6          5.4500   -2.1630    1.4670 hc        1 MOL      0.060743
     18 H7          4.8820   -2.9630    2.9500 hc        1 MOL      0.060743
     19 N2          2.3020   -0.2230    2.8770 n         1 MOL     -0.252534
     20 C7          0.9000   -0.2140    2.4370 c3        1 MOL      0.019826
     21 C8          0.3480    1.1850    2.4650 c         1 MOL      0.585704
     22 O5          0.5050    1.8320    3.4790 o         1 MOL     -0.489752
     23 C9          0.0970   -1.1990    3.2990 c3        1 MOL     -0.452246
     24 C10         0.3620   -2.7550    2.9570 c3        1 MOL     -0.013572
     25 C11        -0.3550   -3.6210    3.9970 c3        1 MOL     -0.032704
     26 C12         0.0710   -5.1260    3.7280 c3        1 MOL      0.107758
     27 N3          0.5690   -5.7230    4.9990 n4        1 MOL     -0.273943
     28 H8          2.5540    0.3500    3.6760 hn        1 MOL      0.184954
     29 H9          0.8700   -0.6490    1.4350 h1        1 MOL      0.371218
     30 H10        -0.9690   -1.0790    3.1070 hc        1 MOL      0.139423
     31 H11         0.2790   -1.0500    4.3550 hc        1 MOL      0.139423
     32 H12         1.4210   -2.9660    3.0900 hc        1 MOL      0.049506
     33 H13         0.0790   -2.9210    1.9160 hc        1 MOL      0.049506
     34 H14        -1.4310   -3.6370    3.8380 hc        1 MOL      0.033548
     35 H15        -0.0720   -3.3280    5.0040 hc        1 MOL      0.033548
     36 H16         0.8150   -5.2320    2.9250 hx        1 MOL      0.029477
     37 H17        -0.8800   -5.5940    3.5040 hx        1 MOL      0.029477
     38 H18         0.0000   -5.6640    5.8340 hn        1 MOL      0.291335
     39 H19         0.8180   -6.6940    4.8680 hn        1 MOL      0.291335
     40 H20         1.4040   -5.2290    5.2860 hn        1 MOL      0.291335
     41 N4         -0.2950    1.7170    1.3520 n         1 MOL     -0.390333
     42 C13        -0.7600    0.9980    0.1150 c3        1 MOL     -0.689087
     43 C14        -1.5400   -0.2940    0.3850 c         1 MOL      0.490967
     44 O6         -1.1300   -1.3660    0.0030 o         1 MOL     -0.249311
     45 C15         0.2740    0.8590   -1.0620 c3        1 MOL      0.042427
     46 C16         0.6840    2.1460   -1.7630 c         1 MOL      0.370909
     47 O7          0.3470    3.2660   -1.2710 o         1 MOL     -0.604747
     48 O8          1.5150    2.0560   -2.7390 o         1 MOL     -0.604747
     49 H21        -0.4660    2.7060    1.4160 hn        1 MOL      0.227213
     50 H22        -1.5320    1.6100   -0.3450 h1        1 MOL      0.247616
     51 H23        -0.1640    0.2500   -1.8510 hc        1 MOL      0.103212
     52 H24         1.1370    0.3160   -0.6670 hc        1 MOL      0.103212
     53 N5         -2.7410   -0.2820    0.9580 n         1 MOL     -0.096394
     54 C17        -3.4890    0.8800    1.3990 c3        1 MOL      0.012052
     55 C18        -4.8120    0.5580    2.1310 c         1 MOL      0.348880
     56 O9         -5.1400   -0.6370    2.4510 o         1 MOL     -0.530483
     57 H25        -3.2040   -1.1860    1.0190 hn        1 MOL      0.025614
     58 H26        -3.6970    1.4870    0.5120 h1        1 MOL      0.077938
     59 H27        -2.8950    1.4780    2.0820 h1        1 MOL      0.077938
     60 N6         -5.5370    1.5620    2.6240 n         1 MOL     -0.183442
     61 C19        -5.4520    2.9540    2.2500 c3        1 MOL     -0.144048
     62 C20        -5.8140    3.0500    0.7430 c         1 MOL      0.577728
     63 O10        -4.9440    3.4600   -0.0300 o         1 MOL     -0.600747
     64 C21        -6.2800    3.9990    3.0720 c3        1 MOL     -0.231792
     65 C22        -7.7550    3.5770    3.3310 c         1 MOL      0.711803
     66 O11        -8.6520    4.3310    2.9620 o         1 MOL     -0.687713
     67 O12        -7.9630    2.4540    3.8760 o         1 MOL     -0.687713
     68 H28        -6.2800    1.3650    3.2810 hn        1 MOL      0.216192
     69 H29        -4.4030    3.2820    2.2440 h1        1 MOL      0.069010
     70 H30        -6.1590    5.0120    2.6770 hc        1 MOL      0.072156
     71 H31        -5.8930    4.0920    4.0840 hc        1 MOL      0.072156
     72 N7         -6.9240    2.5070    0.3160 n         1 MOL     -0.363840
     73 C23        -7.2920    2.3330   -1.1080 c3        1 MOL      0.008094
     74 C24        -7.0040    0.8970   -1.5960 c         1 MOL      0.390764
     75 O13        -6.5290    0.7270   -2.7380 o         1 MOL     -0.518109
     76 H32        -7.5680    2.0230    0.9420 hn        1 MOL      0.264377
     77 H33        -6.7780    3.0470   -1.7430 h1        1 MOL      0.090747
     78 H34        -8.3450    2.5400   -1.3190 h1        1 MOL      0.090747
     79 N8         -7.2420   -0.1410   -0.7760 n         1 MOL     -0.292368
     80 C25        -6.8310   -1.5610   -0.8670 c3        1 MOL      0.074566
     81 C26        -5.3220   -1.8530   -1.0930 c         1 MOL      0.455685
     82 O14        -4.5420   -1.0700   -1.5820 o         1 MOL     -0.394881
     83 C27        -7.8210   -2.2880   -1.8570 c3        1 MOL      0.239748
     84 C28        -8.0850   -1.7570   -3.2460 c3        1 MOL     -0.350275
     85 O15        -9.0850   -2.2970   -1.2360 oh        1 MOL     -0.630914
     86 H35        -7.6840    0.0680    0.1070 hn        1 MOL      0.270797
     87 H36        -7.0500   -1.9790    0.1120 h1        1 MOL      0.070359
     88 H37        -7.4390   -3.3120   -1.9420 h1        1 MOL     -0.001575
     89 H38        -9.5280   -2.9960   -1.7260 ho        1 MOL      0.409552
     90 H39        -8.7470   -0.9000   -3.1520 hc        1 MOL      0.105746
     91 H40        -7.1960   -1.5050   -3.8110 hc        1 MOL      0.105746
     92 H41        -8.6940   -2.4580   -3.8100 hc        1 MOL      0.105746
     93 N9         -4.9490   -3.0660   -0.6670 n         1 MOL     -0.478587
     94 C29        -3.5610   -3.6090   -0.3470 c3        1 MOL     -0.035602
     95 C30        -2.9020   -4.0680   -1.6940 c         1 MOL      0.542511
     96 O16        -2.9680   -5.2180   -2.1360 o         1 MOL     -0.548980
     97 C31        -3.5310   -4.7100    0.7310 c3        1 MOL      0.210900
     98 C32        -4.0190   -4.0240    2.0190 c3        1 MOL      0.012758
     99 C33        -2.1770   -5.3220    0.9310 c3        1 MOL     -0.273375
    100 C34        -4.3430   -4.9060    3.2720 c3        1 MOL     -0.354792
    101 H42        -5.6900   -3.6450   -0.2910 hn        1 MOL      0.273793
    102 H43        -2.8820   -2.8450    0.0130 h1        1 MOL     -0.018235
    103 H44        -4.1600   -5.5560    0.4420 hc        1 MOL      0.001905
    104 H45        -4.9080   -3.4670    1.7200 hc        1 MOL      0.058932
    105 H46        -3.3140   -3.2170    2.2120 hc        1 MOL      0.058932
    106 H47        -1.8190   -5.7530   -0.0090 hc        1 MOL      0.062439
    107 H48        -1.4220   -4.6460    1.3370 hc        1 MOL      0.062439
    108 H49        -2.2780   -6.0830    1.6950 hc        1 MOL      0.062439
    109 H50        -4.7170   -4.3050    4.0960 hc        1 MOL      0.089142
    110 H51        -5.1310   -5.6300    3.0390 hc        1 MOL      0.089142
    111 H52        -3.5110   -5.4270    3.7480 hc        1 MOL      0.089142
    112 N10        -2.4050   -3.1130   -2.5220 n         1 MOL     -0.173933
    113 C35        -1.5460   -3.3450   -3.6880 c3        1 MOL     -0.104803
    114 C36        -0.0400   -3.2910   -3.2400 c         1 MOL      0.236077
    115 O17         0.7750   -3.5960   -4.1350 o         1 MOL     -0.497099
    116 C37        -1.7800   -2.3600   -4.8690 c3        1 MOL      0.461315
    117 C38        -1.2680   -0.9540   -4.5540 c3        1 MOL     -0.171845
    118 O18        -3.1200   -2.2300   -5.1560 oh        1 MOL     -0.648546
    119 H53        -2.5800   -2.1760   -2.1940 hn        1 MOL      0.085396
    120 H54        -1.7700   -4.3030   -4.1650 h1        1 MOL      0.129446
    121 H55        -1.3390   -2.6190   -5.8370 h1        1 MOL     -0.003385
    122 H56        -3.3030   -1.3070   -5.0090 ho        1 MOL      0.385827
    123 H57        -0.2210   -0.9450   -4.2200 hc        1 MOL      0.041605
    124 H58        -1.3920   -0.3150   -5.4290 hc        1 MOL      0.041605
    125 H59        -1.9110   -0.5330   -3.7840 hc        1 MOL      0.041605
    126 N11         0.2110   -2.7630   -1.9920 n         1 MOL     -0.010114
    127 C39         1.6010   -2.8010   -1.3750 c3        1 MOL      0.099623
    128 C40         2.7510   -2.0810   -2.1620 c         1 MOL      0.263241
    129 O19         2.6530   -1.7810   -3.3440 o         1 MOL     -0.424058
    130 C41         2.1150   -4.1080   -0.8580 c3        1 MOL      0.434062
    131 C42         2.3110   -5.1880   -1.9480 c3        1 MOL     -0.515849
    132 O20         1.2340   -4.6650    0.0830 oh        1 MOL     -0.626799
    133 H60        -0.5820   -2.5270   -1.4160 hn        1 MOL      0.084662
    134 H61         1.4800   -2.2400   -0.4510 h1        1 MOL     -0.194007
    135 H62         3.0640   -4.0290   -0.3310 h1        1 MOL      0.002150
    136 H63         1.7210   -4.7570    0.9150 ho        1 MOL      0.362892
    137 H64         1.3740   -5.6750   -2.2210 hc        1 MOL      0.138196
    138 H65         2.6450   -4.6360   -2.8240 hc        1 MOL      0.138196
    139 H66         3.0000   -6.0210   -1.8020 hc        1 MOL      0.138196
    140 N12         3.7770   -1.7330   -1.4360 n         1 MOL     -0.204963
    141 C43         4.9240   -1.0690   -2.0100 c3        1 MOL     -0.022999
    142 C44         4.9050    0.4330   -1.7620 c         1 MOL      0.407290
    143 O21         5.4170    1.1890   -2.6110 o         1 MOL     -0.553339
    144 C45         6.2360   -1.8030   -1.5250 c3        1 MOL      0.058559
    145 C46         7.5700   -1.3990   -2.1820 c3        1 MOL     -0.172868
    146 C47         7.7450   -1.6370   -3.6810 c3        1 MOL      0.070335
    147 C48         9.1200   -1.1550   -4.1750 c3        1 MOL      0.058832
    148 N13         9.2460   -1.2870   -5.6440 n4        1 MOL     -0.389750
    149 H67         3.6940   -1.7580   -0.4260 hn        1 MOL      0.079840
    150 H68         4.9040   -1.2050   -3.1000 h1        1 MOL      0.059075
    151 H69         6.0900   -2.8810   -1.5280 hc        1 MOL      0.017043
    152 H70         6.4610   -1.4910   -0.4970 hc        1 MOL      0.017043
    153 H71         8.2840   -2.0120   -1.6380 hc        1 MOL      0.068182
    154 H72         7.7930   -0.3550   -1.9980 hc        1 MOL      0.068182
    155 H73         6.9490   -1.1050   -4.2100 hc        1 MOL      0.010100
    156 H74         7.6810   -2.6880   -3.9510 hc        1 MOL      0.010100
    157 H75         9.8370   -1.7640   -3.6230 hx        1 MOL      0.072828
    158 H76         9.3380   -0.1030   -4.0050 hx        1 MOL      0.072828
    159 H77        10.1990   -1.0540   -5.9000 hn        1 MOL      0.330198
    160 H78         9.0610   -2.2340   -5.9440 hn        1 MOL      0.330198
    161 H79         8.6740   -0.6160   -6.1470 hn        1 MOL      0.330198
    162 N14         4.3380    0.9160   -0.6590 n         1 MOL      0.458882
    163 C49         4.5480    2.2830   -0.1660 c3        1 MOL     -0.894768
    164 C50         5.9550    2.5610    0.3490 c         1 MOL      0.592839
    165 O22         6.6430    1.6300    0.8090 o         1 MOL     -0.486289
    166 C51         3.4920    2.4980    0.9150 c3        1 MOL      0.956516
    167 C52         3.2590    3.9620    1.4970 c3        1 MOL     -0.538641
    168 C53         3.0010    5.0230    0.4780 c         1 MOL      0.931524
    169 O23         4.0330    5.5620    0.0150 o         1 MOL     -0.833123
    170 O24         1.8730    5.4580    0.1660 o         1 MOL     -0.833123
    171 H80         3.8370    0.3170   -0.0210 hn        1 MOL     -0.067939
    172 H81         4.3680    2.9290   -1.0280 h1        1 MOL      0.197532
    173 H82         3.5560    1.8040    1.7530 hc        1 MOL     -0.221043
    174 H83         2.5020    2.3050    0.5020 hc        1 MOL     -0.221043
    175 H84         4.1650    4.2300    2.0420 hc        1 MOL      0.119574
    176 H85         2.4180    4.0260    2.1860 hc        1 MOL      0.119574
    177 N15         6.3310    3.8760    0.2800 n         1 MOL     -0.449953
    178 C54         7.5950    4.4170    0.8140 c3        1 MOL     -0.069511
    179 H86         7.8710    5.3120    0.2560 h1        1 MOL      0.062853
    180 H87         7.4670    4.6700    1.8660 h1        1 MOL      0.062853
    181 H88         8.3820    3.6700    0.7120 h1        1 MOL      0.062853
    182 H89         5.7230    4.5810   -0.1200 hn        1 MOL      0.419062
    183 Ca1        -0.3650    5.6020   -1.1410 Ca        1 MOL      1.753079
    184 O25        -2.6510    4.3140   -1.5330 oh        1 MOL     -0.828905
    185 H90        -3.0880    3.8930   -2.2780 ho        1 MOL      0.415533
    186 H91        -3.2010    4.0920   -0.7780 ho        1 MOL      0.415533
    187 O26        -1.7290    6.5160   -3.4310 oh        1 MOL     -0.828905
    188 H92        -2.3440    6.1660   -4.0790 ho        1 MOL      0.415533
    189 H93        -1.2300    7.1680   -3.9190 ho        1 MOL      0.415533
    190 O27         0.1770    8.3030   -1.5380 oh        1 MOL     -0.828905
    191 H94         0.2060    8.7050   -2.4010 ho        1 MOL      0.415533
    192 H95         1.1010    8.2280   -1.2800 ho        1 MOL      0.415533
    193 O28         1.3560    6.0410   -3.0220 oh        1 MOL     -0.828905
    194 H96         1.9110    5.3750   -3.4360 ho        1 MOL      0.415533
    195 H97         1.8680    6.8430   -3.0770 ho        1 MOL      0.415533
@<TRIPOS>BOND
     1    1    2 1   
     2    1    4 1   
     3    1    5 1   
     4    1    6 1   
     5    2    3 2   
     6    2    7 1   
     7    7    8 1   
     8    7   15 1   
     9    8    9 1   
    10    8   11 1   
    11    8   16 1   
    12    9   10 2   
    13    9   19 1   
    14   11   12 1   
    15   11   17 1   
    16   11   18 1   
    17   12   13 1   
    18   12   14 1   
    19   19   20 1   
    20   19   28 1   
    21   20   21 1   
    22   20   23 1   
    23   20   29 1   
    24   21   22 2   
    25   21   41 1   
    26   23   24 1   
    27   23   30 1   
    28   23   31 1   
    29   24   25 1   
    30   24   32 1   
    31   24   33 1   
    32   25   26 1   
    33   25   34 1   
    34   25   35 1   
    35   26   27 1   
    36   26   36 1   
    37   26   37 1   
    38   27   38 1   
    39   27   39 1   
    40   27   40 1   
    41   41   42 1   
    42   41   49 1   
    43   42   43 1   
    44   42   45 1   
    45   42   50 1   
    46   43   44 2   
    47   43   53 1   
    48   45   46 1   
    49   45   51 1   
    50   45   52 1   
    51   46   47 1   
    52   46   48 1   
    53   53   54 1   
    54   53   57 1   
    55   54   55 1   
    56   54   58 1   
    57   54   59 1   
    58   55   56 2   
    59   55   60 1   
    60   60   61 1   
    61   60   68 1   
    62   61   62 1   
    63   61   64 1   
    64   61   69 1   
    65   62   63 2   
    66   62   72 1   
    67   64   65 1   
    68   64   70 1   
    69   64   71 1   
    70   65   66 1   
    71   65   67 1   
    72   72   73 1   
    73   72   76 1   
    74   73   74 1   
    75   73   77 1   
    76   73   78 1   
    77   74   75 2   
    78   74   79 1   
    79   79   80 1   
    80   79   86 1   
    81   80   81 1   
    82   80   83 1   
    83   80   87 1   
    84   81   82 2   
    85   81   93 1   
    86   83   84 1   
    87   83   85 1   
    88   83   88 1   
    89   84   90 1   
    90   84   91 1   
    91   84   92 1   
    92   85   89 1   
    93   93   94 1   
    94   93  101 1   
    95   94   95 1   
    96   94   97 1   
    97   94  102 1   
    98   95   96 2   
    99   95  112 1   
   100   97   98 1   
   101   97   99 1   
   102   97  103 1   
   103   98  100 1   
   104   98  104 1   
   105   98  105 1   
   106   99  106 1   
   107   99  107 1   
   108   99  108 1   
   109  100  109 1   
   110  100  110 1   
   111  100  111 1   
   112  112  113 1   
   113  112  119 1   
   114  113  114 1   
   115  113  116 1   
   116  113  120 1   
   117  114  115 2   
   118  114  126 1   
   119  116  117 1   
   120  116  118 1   
   121  116  121 1   
   122  117  123 1   
   123  117  124 1   
   124  117  125 1   
   125  118  122 1   
   126  126  127 1   
   127  126  133 1   
   128  127  128 1   
   129  127  130 1   
   130  127  134 1   
   131  128  129 2   
   132  128  140 1   
   133  130  131 1   
   134  130  132 1   
   135  130  135 1   
   136  131  137 1   
   137  131  138 1   
   138  131  139 1   
   139  132  136 1   
   140  140  141 1   
   141  140  149 1   
   142  141  142 1   
   143  141  144 1   
   144  141  150 1   
   145  142  143 2   
   146  142  162 1   
   147  144  145 1   
   148  144  151 1   
   149  144  152 1   
   150  145  146 1   
   151  145  153 1   
   152  145  154 1   
   153  146  147 1   
   154  146  155 1   
   155  146  156 1   
   156  147  148 1   
   157  147  157 1   
   158  147  158 1   
   159  148  159 1   
   160  148  160 1   
   161  148  161 1   
   162  162  163 1   
   163  162  171 1   
   164  163  164 1   
   165  163  166 1   
   166  163  172 1   
   167  164  165 2   
   168  164  177 1   
   169  166  167 1   
   170  166  173 1   
   171  166  174 1   
   172  167  168 1   
   173  167  175 1   
   174  167  176 1   
   175  168  169 1   
   176  168  170 1   
   177  177  178 1   
   178  177  182 1   
   179  178  179 1   
   180  178  180 1   
   181  178  181 1   
   182  184  185 1   
   183  184  186 1   
   184  187  188 1   
   185  187  189 1   
   186  190  191 1   
   187  190  192 1   
   188  193  194 1   
   189  193  195 1   
@<TRIPOS>SUBSTRUCTURE
     1 MOL         1 TEMP              0 ****  ****    0 ROOT
