@<TRIPOS>MOLECULE
MOL
  185   180     1     0     0
SMALL
resp


@<TRIPOS>ATOM
      1 C1          4.6250    4.9230    1.8280 c3        1 MOL     -0.439190
      2 C2          5.1560    3.6780    1.1180 c         1 MOL      0.808484
      3 O1          4.4860    2.6430    1.0650 o         1 MOL     -0.584886
      4 H1          5.0540    5.8130    1.3680 hc        1 MOL      0.102969
      5 H2          3.5390    4.9570    1.7390 hc        1 MOL      0.102969
      6 H3          4.9030    4.8880    2.8810 hc        1 MOL      0.102969
      7 N1          6.3920    3.8000    0.6030 n         1 MOL     -0.659704
      8 C3          7.3860    2.8090    0.1140 c3        1 MOL     -0.040289
      9 C4          7.8020    1.7020    1.0840 c         1 MOL      0.583716
     10 O2          8.9830    1.3870    1.2670 o         1 MOL     -0.567228
     11 C5          6.7680    2.2620   -1.2110 c3        1 MOL     -0.208812
     12 C6          6.4190    3.2390   -2.3210 c         1 MOL      0.810308
     13 O3          7.0890    4.2890   -2.4670 o         1 MOL     -0.699802
     14 O4          5.5220    3.0360   -3.1320 o         1 MOL     -0.699802
     15 H4          6.6920    4.7500    0.4320 hn        1 MOL      0.348709
     16 H5          8.2640    3.3840   -0.1800 h1        1 MOL      0.082336
     17 H6          5.9390    1.5720   -1.0520 hc        1 MOL      0.070449
     18 H7          7.5200    1.6440   -1.6950 hc        1 MOL      0.070449
     19 N2          6.7920    1.1460    1.7060 n         1 MOL     -0.330509
     20 C7          6.8000   -0.0220    2.6380 c3        1 MOL     -0.209077
     21 C8          6.2270   -1.3030    1.9690 c         1 MOL      0.762430
     22 O5          6.4850   -2.4020    2.3730 o         1 MOL     -0.577001
     23 C9          6.1540    0.1490    4.0090 c3        1 MOL     -0.163134
     24 C10         6.5320    1.2410    4.9190 c3        1 MOL     -0.072081
     25 C11         8.0360    1.4470    5.1600 c3        1 MOL      0.159133
     26 C12         8.1760    2.7340    5.8760 c3        1 MOL     -0.050692
     27 N3          9.5850    3.2320    5.6470 n4        1 MOL     -0.263394
     28 H8          5.8850    1.5720    1.5860 hn        1 MOL      0.251136
     29 H9          7.8660   -0.2140    2.7090 h1        1 MOL      0.081801
     30 H10         6.2030   -0.8320    4.4900 hc        1 MOL      0.093079
     31 H11         5.0870    0.2770    3.8330 hc        1 MOL      0.093079
     32 H12         6.0760    1.1170    5.9040 hc        1 MOL      0.040034
     33 H13         6.1310    2.1350    4.4430 hc        1 MOL      0.040034
     34 H14         8.5540    1.4980    4.2000 hc        1 MOL      0.012431
     35 H15         8.5230    0.7170    5.8040 hc        1 MOL      0.012431
     36 H16         8.0510    2.5340    6.9400 hx        1 MOL      0.074368
     37 H17         7.5110    3.4710    5.4380 hx        1 MOL      0.074368
     38 H18         9.5600    3.8110    4.8250 hn        1 MOL      0.268150
     39 H19         9.8040    3.7730    6.4760 hn        1 MOL      0.268150
     40 H20        10.1870    2.4430    5.4440 hn        1 MOL      0.268150
     41 N4          5.3050   -1.0790    0.9760 n         1 MOL     -0.672170
     42 C13         4.5850   -2.1440    0.3400 c3        1 MOL      0.344648
     43 C14         4.7240   -1.9830   -1.1790 c         1 MOL      0.450057
     44 O6          5.0520   -0.9310   -1.6860 o         1 MOL     -0.523461
     45 C15         3.0740   -2.1570    0.6920 c3        1 MOL     -0.337860
     46 C16         2.3770   -3.4550    0.4300 c         1 MOL      0.730692
     47 O7          3.0580   -4.4660    0.2800 o         1 MOL     -0.732882
     48 O8          1.1320   -3.6030    0.3750 o         1 MOL     -0.732882
     49 H21         5.1870   -0.1150    0.7000 hn        1 MOL      0.353299
     50 H22         5.0790   -3.1080    0.4500 h1        1 MOL     -0.019108
     51 H23         2.5100   -1.4120    0.1350 hc        1 MOL      0.110837
     52 H24         3.0080   -1.8970    1.7510 hc        1 MOL      0.110837
     53 N5          4.4890   -3.0680   -1.8960 n         1 MOL     -0.337450
     54 C17         4.7610   -3.0900   -3.3580 c3        1 MOL     -0.086863
     55 C18         3.6700   -2.4510   -4.2680 c         1 MOL      0.588863
     56 O9          3.6910   -2.5610   -5.4720 o         1 MOL     -0.557656
     57 H25         4.1240   -3.8870   -1.4180 hn        1 MOL      0.279081
     58 H26         4.9800   -4.0930   -3.7210 h1        1 MOL      0.068077
     59 H27         5.6380   -2.4510   -3.5250 h1        1 MOL      0.068077
     60 N6          2.6420   -1.8110   -3.6710 n         1 MOL     -0.333228
     61 C19         1.3290   -1.5520   -4.2730 c3        1 MOL     -0.162345
     62 C20         0.8420   -0.0450   -4.3560 c         1 MOL      0.452289
     63 O10        -0.3430    0.2380   -4.6410 o         1 MOL     -0.505069
     64 C21         0.2300   -2.3070   -3.5130 c3        1 MOL     -0.192128
     65 C22         0.4640   -3.7690   -3.3730 c         1 MOL      0.732833
     66 N7         -0.1250   -4.5420   -4.2170 n         1 MOL     -0.825220
     67 O11         1.2140   -4.2220   -2.4910 o         1 MOL     -0.703450
     68 H28         2.7290   -1.5520   -2.7050 hn        1 MOL      0.256651
     69 H29         1.4260   -1.9970   -5.2620 h1        1 MOL      0.123947
     70 H30        -0.7000   -2.2060   -4.0680 hc        1 MOL      0.118796
     71 H31        -0.0590   -1.9400   -2.5290 hc        1 MOL      0.118796
     72 H32        -0.6920   -4.2110   -4.9940 hn        1 MOL      0.377809
     73 H33         0.0160   -5.5380   -4.1460 hn        1 MOL      0.377809
     74 N8          1.7820    0.8490   -3.9160 n         1 MOL     -0.150953
     75 C23         1.6870    2.2870   -3.9900 c3        1 MOL     -0.219399
     76 C24         0.8400    2.8710   -2.8330 c         1 MOL      0.579359
     77 O12         1.1850    2.6170   -1.6700 o         1 MOL     -0.477780
     78 H34         2.6620    0.4580   -3.6240 hn        1 MOL      0.220724
     79 H35         1.2610    2.4980   -4.9730 h1        1 MOL      0.103323
     80 H36         2.6580    2.7770   -3.9570 h1        1 MOL      0.103323
     81 N9         -0.2140    3.5850   -3.1870 n         1 MOL     -0.505950
     82 C25        -1.1180    4.2870   -2.2370 c3        1 MOL      0.069313
     83 C26        -1.9210    3.3230   -1.3570 c         1 MOL      0.354159
     84 O13        -1.8560    2.0870   -1.5770 o         1 MOL     -0.370387
     85 C27        -0.2610    5.2710   -1.4420 c3        1 MOL     -0.270905
     86 C28        -1.0740    6.4970   -0.8950 ca        1 MOL      0.061753
     87 C29        -1.8080    7.4620   -1.6560 ca        1 MOL     -0.195272
     88 C30        -0.9850    6.7530    0.4800 ca        1 MOL     -0.195272
     89 C31        -2.4920    8.5640   -1.1030 ca        1 MOL     -0.205477
     90 C32        -1.6720    7.7780    1.0720 ca        1 MOL     -0.205477
     91 C33        -2.4530    8.7240    0.3210 ca        1 MOL      0.296592
     92 O14        -3.0580    9.6530    1.0640 oh        1 MOL     -0.477440
     93 H37        -0.5020    3.8270   -4.1230 hn        1 MOL      0.329143
     94 H38        -1.8950    4.7550   -2.8330 h1        1 MOL      0.060981
     95 H39         0.5240    5.6090   -2.1150 hc        1 MOL      0.157744
     96 H40         0.2470    4.7770   -0.6070 hc        1 MOL      0.157744
     97 H41        -1.8110    7.3480   -2.7260 ha        1 MOL      0.139391
     98 H42        -0.4340    6.1770    1.2040 ha        1 MOL      0.139391
     99 H43        -3.1350    9.2120   -1.6770 ha        1 MOL      0.140706
    100 H44        -1.5110    8.0640    2.0990 ha        1 MOL      0.140706
    101 H45        -2.8450    9.5740    1.9970 ho        1 MOL      0.367135
    102 N10        -2.6230    3.7540   -0.2720 n         1 MOL     -0.289763
    103 C34        -3.4200    2.9340    0.5990 c3        1 MOL     -0.082438
    104 C35        -4.5010    2.1870   -0.2300 c         1 MOL      0.209210
    105 O15        -4.5560    0.9380   -0.1890 o         1 MOL     -0.367594
    106 C36        -4.0080    3.6670    1.7790 c3        1 MOL      0.180183
    107 C37        -3.0010    4.5330    2.5550 c3        1 MOL      0.234050
    108 C38        -4.7700    2.6230    2.6820 c3        1 MOL     -0.498993
    109 C39        -1.7390    3.8030    3.1420 c3        1 MOL     -0.415888
    110 H46        -2.7600    4.7520   -0.2500 hn        1 MOL      0.206581
    111 H47        -2.7560    2.1130    0.8790 h1        1 MOL      0.136842
    112 H48        -4.7670    4.3340    1.3770 hc        1 MOL     -0.051656
    113 H49        -3.5850    5.0040    3.3520 hc        1 MOL     -0.072045
    114 H50        -2.6840    5.3780    1.9450 hc        1 MOL     -0.072045
    115 H51        -4.0870    1.8160    2.9670 hc        1 MOL      0.147707
    116 H52        -5.1390    3.0490    3.6120 hc        1 MOL      0.147707
    117 H53        -5.5980    2.2020    2.1250 hc        1 MOL      0.147707
    118 H54        -1.0480    3.4780    2.3740 hc        1 MOL      0.113841
    119 H55        -1.1770    4.5140    3.7420 hc        1 MOL      0.113841
    120 H56        -2.0860    2.8630    3.5730 hc        1 MOL      0.113841
    121 N11        -5.3000    2.9430   -1.0280 n         1 MOL     -0.075086
    122 C40        -6.3360    2.3850   -1.8620 c3        1 MOL     -0.239005
    123 C41        -7.3980    1.5240   -1.1690 c         1 MOL      0.323044
    124 O16        -7.8930    0.5200   -1.6930 o         1 MOL     -0.432385
    125 C42        -7.1330    3.5190   -2.5350 c3        1 MOL      0.267045
    126 O17        -6.3900    4.0750   -3.5380 oh        1 MOL     -0.541244
    127 H57        -5.0640    3.9230   -1.0900 hn        1 MOL      0.183917
    128 H58        -5.9350    1.7380   -2.6500 h1        1 MOL      0.179956
    129 H59        -7.4860    4.3120   -1.8760 h1        1 MOL      0.028884
    130 H60        -8.0450    3.2090   -3.0430 h1        1 MOL      0.028884
    131 H61        -5.5600    4.2610   -3.0890 ho        1 MOL      0.337037
    132 N12        -7.7050    1.8480    0.1030 n         1 MOL     -0.382037
    133 C43        -8.5140    1.0960    1.1110 c3        1 MOL      0.220041
    134 C44        -8.3840   -0.4550    1.1300 c         1 MOL      0.383700
    135 O18        -9.2690   -1.2160    1.5180 o         1 MOL     -0.524249
    136 C45        -9.9410    1.5760    0.8140 c3        1 MOL     -0.377153
    137 H62        -7.3360    2.7120    0.4800 hn        1 MOL      0.252916
    138 H63        -8.1440    1.5130    2.0520 h1        1 MOL      0.036019
    139 H64       -10.0360    2.6600    0.9220 hc        1 MOL      0.107752
    140 H65       -10.0760    1.3180   -0.2320 hc        1 MOL      0.107752
    141 H66       -10.7110    1.0800    1.4170 hc        1 MOL      0.107752
    142 N13        -7.2450   -0.9430    0.7420 n         1 MOL     -0.325592
    143 C46        -6.8800   -2.3750    0.6670 c3        1 MOL      0.522584
    144 C47        -5.8040   -2.7820    1.6810 c         1 MOL      0.290810
    145 O19        -5.1240   -1.9740    2.2520 o         1 MOL     -0.431673
    146 C48        -6.4100   -2.6840   -0.7710 c3        1 MOL     -0.271073
    147 H67        -6.5210   -0.2670    0.5470 hn        1 MOL      0.143116
    148 H68        -7.7710   -2.9570    0.8960 h1        1 MOL     -0.059706
    149 H69        -6.2210   -3.7640   -0.8260 hc        1 MOL      0.072253
    150 H70        -7.1530   -2.3480   -1.5000 hc        1 MOL      0.072253
    151 H71        -5.5060   -2.1010   -0.9700 hc        1 MOL      0.072253
    152 N14        -5.6570   -4.1390    1.8570 n         1 MOL     -0.387093
    153 C49        -4.7610   -4.7450    2.8590 c3        1 MOL      0.133867
    154 C50        -4.8690   -4.2080    4.3160 c         1 MOL      0.355923
    155 O20        -3.9380   -3.9610    5.0360 o         1 MOL     -0.444364
    156 C51        -3.3260   -4.6740    2.2680 c3        1 MOL      0.014133
    157 C52        -3.0400   -5.5730    1.0040 c3        1 MOL     -0.089058
    158 C53        -1.5990   -5.4090    0.5100 c         1 MOL      0.777902
    159 O21        -0.6210   -5.6780    1.2750 o         1 MOL     -0.752382
    160 O22        -1.3320   -5.2550   -0.7020 o         1 MOL     -0.752382
    161 H72        -6.2530   -4.7370    1.3120 hn        1 MOL      0.245943
    162 H73        -5.0100   -5.8020    2.8820 h1        1 MOL      0.018344
    163 H74        -2.7050   -5.0230    3.0910 hc        1 MOL      0.033005
    164 H75        -3.0840   -3.6480    1.9750 hc        1 MOL      0.033005
    165 H76        -3.7200   -5.2400    0.2230 hc        1 MOL     -0.021308
    166 H77        -3.2590   -6.6260    1.1540 hc        1 MOL     -0.021308
    167 N15        -6.0990   -3.8430    4.7340 n         1 MOL     -0.373868
    168 C54        -6.2780   -2.8660    5.8130 c3        1 MOL      0.111243
    169 H78        -5.3390   -2.7470    6.3550 h1        1 MOL      0.022764
    170 H79        -6.5760   -1.9070    5.3900 h1        1 MOL      0.022764
    171 H80        -7.0490   -3.2170    6.4990 h1        1 MOL      0.022764
    172 H81        -6.8690   -4.0320    4.1160 hn        1 MOL      0.215762
    173 Ca1         1.1540   -6.0150   -0.5370 Ca        1 MOL      1.805094
    174 O23         2.1020   -7.1790    1.8080 oh        1 MOL     -0.842131
    175 H82         2.8040   -7.7840    2.0470 ho        1 MOL      0.414074
    176 H83         1.8680   -6.7530    2.6330 ho        1 MOL      0.414074
    177 O24         3.5420   -6.2640   -1.7620 oh        1 MOL     -0.842131
    178 H84         4.4590   -6.4440   -1.5490 ho        1 MOL      0.414074
    179 H85         3.4780   -6.4110   -2.7090 ho        1 MOL      0.414074
    180 O25         0.7170   -7.2250   -2.9200 oh        1 MOL     -0.842131
    181 H86         1.4620   -6.9890   -3.4780 ho        1 MOL      0.414074
    182 H87         0.3680   -8.0290   -3.3150 ho        1 MOL      0.414074
    183 O26         0.0420   -8.3320   -0.0370 oh        1 MOL     -0.842131
    184 H88         0.5510   -9.1460    0.0130 ho        1 MOL      0.414074
    185 H89        -0.8470   -8.6000    0.2130 ho        1 MOL      0.414074
@<TRIPOS>BOND
     1    1    2 1   
     2    1    4 1   
     3    1    5 1   
     4    1    6 1   
     5    2    3 2   
     6    2    7 1   
     7    7    8 1   
     8    7   15 1   
     9    8    9 1   
    10    8   11 1   
    11    8   16 1   
    12    9   10 2   
    13    9   19 1   
    14   11   12 1   
    15   11   17 1   
    16   11   18 1   
    17   12   13 1   
    18   12   14 1   
    19   19   20 1   
    20   19   28 1   
    21   20   21 1   
    22   20   23 1   
    23   20   29 1   
    24   21   22 2   
    25   21   41 1   
    26   23   24 1   
    27   23   30 1   
    28   23   31 1   
    29   24   25 1   
    30   24   32 1   
    31   24   33 1   
    32   25   26 1   
    33   25   34 1   
    34   25   35 1   
    35   26   27 1   
    36   26   36 1   
    37   26   37 1   
    38   27   38 1   
    39   27   39 1   
    40   27   40 1   
    41   41   42 1   
    42   41   49 1   
    43   42   43 1   
    44   42   45 1   
    45   42   50 1   
    46   43   44 2   
    47   43   53 1   
    48   45   46 1   
    49   45   51 1   
    50   45   52 1   
    51   46   47 1   
    52   46   48 1   
    53   53   54 1   
    54   53   57 1   
    55   54   55 1   
    56   54   58 1   
    57   54   59 1   
    58   55   56 2   
    59   55   60 1   
    60   60   61 1   
    61   60   68 1   
    62   61   62 1   
    63   61   64 1   
    64   61   69 1   
    65   62   63 2   
    66   62   74 1   
    67   64   65 1   
    68   64   70 1   
    69   64   71 1   
    70   65   66 1   
    71   65   67 2   
    72   66   72 1   
    73   66   73 1   
    74   74   75 1   
    75   74   78 1   
    76   75   76 1   
    77   75   79 1   
    78   75   80 1   
    79   76   77 2   
    80   76   81 1   
    81   81   82 1   
    82   81   93 1   
    83   82   83 1   
    84   82   85 1   
    85   82   94 1   
    86   83   84 2   
    87   83  102 1   
    88   85   86 1   
    89   85   95 1   
    90   85   96 1   
    91   86   87 ar  
    92   86   88 ar  
    93   87   89 ar  
    94   87   97 1   
    95   88   90 ar  
    96   88   98 1   
    97   89   91 ar  
    98   89   99 1   
    99   90   91 ar  
   100   90  100 1   
   101   91   92 1   
   102   92  101 1   
   103  102  103 1   
   104  102  110 1   
   105  103  104 1   
   106  103  106 1   
   107  103  111 1   
   108  104  105 2   
   109  104  121 1   
   110  106  107 1   
   111  106  108 1   
   112  106  112 1   
   113  107  109 1   
   114  107  113 1   
   115  107  114 1   
   116  108  115 1   
   117  108  116 1   
   118  108  117 1   
   119  109  118 1   
   120  109  119 1   
   121  109  120 1   
   122  121  122 1   
   123  121  127 1   
   124  122  123 1   
   125  122  125 1   
   126  122  128 1   
   127  123  124 2   
   128  123  132 1   
   129  125  126 1   
   130  125  129 1   
   131  125  130 1   
   132  126  131 1   
   133  132  133 1   
   134  132  137 1   
   135  133  134 1   
   136  133  136 1   
   137  133  138 1   
   138  134  135 2   
   139  134  142 1   
   140  136  139 1   
   141  136  140 1   
   142  136  141 1   
   143  142  143 1   
   144  142  147 1   
   145  143  144 1   
   146  143  146 1   
   147  143  148 1   
   148  144  145 2   
   149  144  152 1   
   150  146  149 1   
   151  146  150 1   
   152  146  151 1   
   153  152  153 1   
   154  152  161 1   
   155  153  154 1   
   156  153  156 1   
   157  153  162 1   
   158  154  155 2   
   159  154  167 1   
   160  156  157 1   
   161  156  163 1   
   162  156  164 1   
   163  157  158 1   
   164  157  165 1   
   165  157  166 1   
   166  158  159 1   
   167  158  160 1   
   168  167  168 1   
   169  167  172 1   
   170  168  169 1   
   171  168  170 1   
   172  168  171 1   
   173  174  175 1   
   174  174  176 1   
   175  177  178 1   
   176  177  179 1   
   177  180  181 1   
   178  180  182 1   
   179  183  184 1   
   180  183  185 1   
@<TRIPOS>SUBSTRUCTURE
     1 MOL         1 TEMP              0 ****  ****    0 ROOT
