@<TRIPOS>MOLECULE
MOL
  189   185     1     0     0
SMALL
resp


@<TRIPOS>ATOM
      1 C1         12.2470    4.5410   -2.4830 c3        1 MOL     -0.341660
      2 C2         11.6480    3.3880   -1.6750 c         1 MOL      0.508259
      3 O1         12.3420    2.3390   -1.5820 o         1 MOL     -0.553142
      4 H1         11.5170    5.3460   -2.5620 hc        1 MOL      0.105536
      5 H2         13.1420    4.9100   -1.9830 hc        1 MOL      0.105536
      6 H3         12.5080    4.1880   -3.4810 hc        1 MOL      0.105536
      7 N1         10.6650    3.6180   -0.7920 n         1 MOL     -0.145483
      8 C3         10.3870    2.6620    0.3300 c3        1 MOL     -0.326165
      9 C4          9.1810    1.8660   -0.0970 c         1 MOL      0.391249
     10 O2          8.1650    2.3950   -0.4970 o         1 MOL     -0.597459
     11 C5         10.2860    3.3410    1.7010 c3        1 MOL      0.235599
     12 C6          9.7640    4.7940    1.6750 c         1 MOL      0.607545
     13 O3          8.5910    4.9620    1.3170 o         1 MOL     -0.688151
     14 O4         10.5100    5.7700    1.9830 o         1 MOL     -0.688151
     15 H4         10.1640    4.4850   -0.9110 hn        1 MOL      0.125721
     16 H5         11.1640    1.9020    0.3240 h1        1 MOL      0.141742
     17 H6         11.2670    3.3960    2.1860 hc        1 MOL     -0.009587
     18 H7          9.6850    2.7300    2.3760 hc        1 MOL     -0.009587
     19 N2          9.2930    0.5890    0.0270 n         1 MOL     -0.189438
     20 C7          8.3530   -0.4890   -0.2010 c3        1 MOL     -0.100948
     21 C8          7.1860   -0.4650    0.7890 c         1 MOL      0.764801
     22 O5          7.3390   -0.7730    1.9760 o         1 MOL     -0.603606
     23 C9          9.0250   -1.8550   -0.2880 c3        1 MOL     -0.229677
     24 C10         7.9610   -2.8140   -0.9780 c3        1 MOL     -0.014290
     25 C11         8.5600   -4.2050   -1.2800 c3        1 MOL      0.030817
     26 C12         8.8050   -4.9350    0.0890 c3        1 MOL      0.055133
     27 N3          9.1530   -6.3120   -0.1960 n4        1 MOL     -0.412177
     28 H8         10.2160    0.3170    0.3510 hn        1 MOL      0.222845
     29 H9          8.0400   -0.2620   -1.2240 h1        1 MOL      0.129414
     30 H10         9.2190   -2.2640    0.7080 hc        1 MOL      0.089394
     31 H11         9.9280   -1.6910   -0.8660 hc        1 MOL      0.089394
     32 H12         7.6620   -2.3640   -1.9240 hc        1 MOL      0.018500
     33 H13         7.0520   -2.8860   -0.3760 hc        1 MOL      0.018500
     34 H14         9.5660   -4.1400   -1.7090 hc        1 MOL      0.017942
     35 H15         7.9790   -4.8110   -1.9640 hc        1 MOL      0.017942
     36 H16         7.9090   -4.9270    0.7230 hx        1 MOL      0.078379
     37 H17         9.5640   -4.4510    0.7050 hx        1 MOL      0.078379
     38 H18         9.2900   -6.7480    0.7110 hn        1 MOL      0.292322
     39 H19         8.3020   -6.6510   -0.5970 hn        1 MOL      0.292322
     40 H20        10.0000   -6.3110   -0.7580 hn        1 MOL      0.292322
     41 N4          5.9910   -0.1710    0.2980 n         1 MOL     -0.429391
     42 C13         4.7210   -0.1500    1.0010 c3        1 MOL      0.143452
     43 C14         3.5600   -0.3860    0.0490 c         1 MOL      0.478174
     44 O6          3.6700   -0.1530   -1.1690 o         1 MOL     -0.515370
     45 C15         4.6040    1.2400    1.7950 c3        1 MOL      0.263109
     46 C16         5.1310    2.5840    1.1500 c         1 MOL      0.544256
     47 O7          4.8510    2.7860   -0.0360 o         1 MOL     -0.722851
     48 O8          5.9390    3.2790    1.7630 o         1 MOL     -0.722851
     49 H21         5.9020   -0.0860   -0.7110 hn        1 MOL      0.191744
     50 H22         4.7300   -0.8470    1.8330 h1        1 MOL      0.018560
     51 H23         4.9540    1.1910    2.8200 hc        1 MOL     -0.056504
     52 H24         3.5160    1.3240    1.8680 hc        1 MOL     -0.056504
     53 N5          2.3600   -0.8130    0.5140 n         1 MOL     -0.581307
     54 C17         1.7610   -0.7860    1.8900 c3        1 MOL      0.106575
     55 C18         1.6860   -2.1310    2.5380 c         1 MOL      0.454015
     56 O9          2.2260   -3.1010    2.0050 o         1 MOL     -0.551253
     57 H25         1.6930   -1.0260   -0.2140 hn        1 MOL      0.415670
     58 H26         0.7440   -0.3830    1.8380 h1        1 MOL      0.053619
     59 H27         2.2770   -0.1070    2.5570 h1        1 MOL      0.053619
     60 N6          1.0870   -2.3410    3.6670 n         1 MOL     -0.375126
     61 C19         0.7080   -3.6670    4.2250 c3        1 MOL      0.091894
     62 C20         0.0440   -4.4720    3.0750 c         1 MOL      0.418298
     63 O10        -0.9710   -4.0900    2.4650 o         1 MOL     -0.445079
     64 C21        -0.3210   -3.4880    5.4060 c3        1 MOL     -0.327992
     65 C22        -0.7880   -4.7630    6.0280 c         1 MOL      0.876329
     66 O11        -1.6580   -4.7640    6.8760 o         1 MOL     -0.691868
     67 O12        -0.1870   -5.7710    5.7880 o         1 MOL     -0.691868
     68 H28         0.6790   -1.5160    4.0930 hn        1 MOL      0.253101
     69 H29         1.6260   -4.1600    4.5380 h1        1 MOL      0.059001
     70 H30        -1.2640   -3.0650    5.0660 hc        1 MOL      0.081997
     71 H31         0.1280   -2.8900    6.1920 hc        1 MOL      0.081997
     72 N7          0.7880   -5.5700    2.6420 n         1 MOL     -0.260818
     73 C23         0.1620   -6.4800    1.6720 c3        1 MOL     -0.320161
     74 C24         0.2190   -6.0370    0.2170 c         1 MOL      0.548961
     75 O13         0.1210   -6.9030   -0.7090 o         1 MOL     -0.620085
     76 H32         1.6950   -5.7720    3.0270 hn        1 MOL      0.270083
     77 H33        -0.8660   -6.6160    2.0340 h1        1 MOL      0.155485
     78 H34         0.7410   -7.3960    1.7550 h1        1 MOL      0.155485
     79 N8          0.3980   -4.7740   -0.0310 n         1 MOL     -0.060333
     80 C25         0.3720   -4.0140   -1.3570 c3        1 MOL     -0.004960
     81 C26        -0.1900   -2.6390   -1.0870 c         1 MOL      0.271689
     82 O14        -0.2510   -2.2450    0.0880 o         1 MOL     -0.413127
     83 C27         1.7530   -3.9570   -2.0440 c3        1 MOL      0.372529
     84 C28         2.3020   -5.3390   -2.4170 c3        1 MOL     -0.498988
     85 O15         1.6200   -3.2050   -3.2160 oh        1 MOL     -0.615853
     86 H35         0.5660   -4.2490    0.8200 hn        1 MOL     -0.005760
     87 H36        -0.2890   -4.4190   -2.1240 h1        1 MOL      0.054050
     88 H37         2.4890   -3.4910   -1.3930 h1        1 MOL      0.001737
     89 H38         2.2360   -3.5400   -3.8750 ho        1 MOL      0.390166
     90 H39         2.8110   -5.5870   -1.4800 hc        1 MOL      0.128570
     91 H40         1.5530   -6.0970   -2.6410 hc        1 MOL      0.128570
     92 H41         3.1050   -5.3230   -3.1550 hc        1 MOL      0.128570
     93 N9         -0.5050   -1.8410   -2.1030 n         1 MOL     -0.103294
     94 C29        -1.3640   -0.6280   -2.0020 c3        1 MOL     -0.119365
     95 C30        -2.8070   -0.9100   -1.4930 c         1 MOL      0.513223
     96 O16        -3.3320   -0.2200   -0.6340 o         1 MOL     -0.493259
     97 C31        -1.1890    0.1510   -3.3540 c3        1 MOL      0.263070
     98 C32         0.1140   -0.0200   -4.1560 c3        1 MOL     -0.412618
     99 C33        -1.4690    1.6740   -3.1670 c3        1 MOL     -0.251394
    100 C34         1.4100    0.3280   -3.3090 c3        1 MOL     -0.276862
    101 H42        -0.3670   -2.3200   -2.9840 hn        1 MOL      0.193909
    102 H43        -0.9620   -0.0070   -1.2010 h1        1 MOL      0.074542
    103 H44        -1.8780   -0.3270   -4.0590 hc        1 MOL     -0.012555
    104 H45         0.1370    0.6780   -4.9950 hc        1 MOL      0.118299
    105 H46         0.2890   -1.0370   -4.5210 hc        1 MOL      0.118299
    106 H47        -1.0340    2.1550   -2.2940 hc        1 MOL      0.078430
    107 H48        -1.1880    2.0990   -4.1250 hc        1 MOL      0.078430
    108 H49        -2.5340    1.8820   -3.2320 hc        1 MOL      0.078430
    109 H50         2.2610    0.4300   -3.9860 hc        1 MOL      0.098527
    110 H51         1.3360    1.3010   -2.8350 hc        1 MOL      0.098527
    111 H52         1.5300   -0.4030   -2.5070 hc        1 MOL      0.098527
    112 N10        -3.4550   -1.9210   -2.0510 n         1 MOL     -0.399649
    113 C35        -4.6510   -2.5320   -1.5770 c3        1 MOL      0.069879
    114 C36        -5.8320   -2.0550   -2.5170 c         1 MOL      0.455526
    115 O17        -5.5160   -1.7530   -3.6700 o         1 MOL     -0.498509
    116 C37        -4.4520   -4.0200   -1.6000 c3        1 MOL      0.329350
    117 C38        -3.4780   -4.5900   -0.5750 c3        1 MOL     -0.147404
    118 O18        -5.6770   -4.6640   -1.2300 oh        1 MOL     -0.691078
    119 H53        -3.0580   -2.2240   -2.9270 hn        1 MOL      0.222085
    120 H54        -4.8640   -2.2790   -0.5460 h1        1 MOL      0.087798
    121 H55        -4.1070   -4.4240   -2.5510 h1        1 MOL     -0.009016
    122 H56        -5.4740   -5.5920   -1.2640 ho        1 MOL      0.413245
    123 H57        -3.7660   -4.3640    0.4530 hc        1 MOL      0.053462
    124 H58        -3.5240   -5.6730   -0.6530 hc        1 MOL      0.053462
    125 H59        -2.4480   -4.3660   -0.8540 hc        1 MOL      0.053462
    126 N11        -7.0800   -2.0570   -2.0210 n         1 MOL     -0.408810
    127 C39        -8.2260   -1.5510   -2.7980 c3        1 MOL     -0.023731
    128 C40        -8.5340   -0.0260   -2.6910 c         1 MOL      0.510988
    129 O19        -9.1600    0.4250   -3.6220 o         1 MOL     -0.542512
    130 C41        -9.5630   -2.2930   -2.6770 c3        1 MOL      0.308841
    131 C42       -10.1800   -2.2200   -1.3550 c3        1 MOL     -0.084780
    132 O20        -9.3010   -3.6740   -2.9280 oh        1 MOL     -0.600321
    133 H60        -7.2580   -2.3950   -1.0820 hn        1 MOL      0.317831
    134 H61        -7.9310   -1.6340   -3.8390 h1        1 MOL      0.079293
    135 H62       -10.2870   -1.9520   -3.4260 h1        1 MOL      0.000942
    136 H63        -9.1040   -3.6240   -3.8700 ho        1 MOL      0.384162
    137 H64        -9.5550   -2.5930   -0.5420 hc        1 MOL      0.028060
    138 H65       -10.5230   -1.2630   -0.9710 hc        1 MOL      0.028060
    139 H66       -11.0930   -2.8180   -1.4090 hc        1 MOL      0.028060
    140 N12        -8.1250    0.6970   -1.5980 n         1 MOL     -0.235784
    141 C43        -8.4610    2.0980   -1.3670 c3        1 MOL     -0.163192
    142 C44        -7.6900    2.7840   -0.2180 c         1 MOL      0.579261
    143 O21        -6.9550    2.1200    0.5620 o         1 MOL     -0.509044
    144 C45        -9.9130    2.0220   -0.8180 c3        1 MOL     -0.262588
    145 C46       -10.1190    1.3230    0.5480 c3        1 MOL     -0.085092
    146 C47       -11.6410    1.1340    0.8810 c3        1 MOL     -0.038713
    147 C48       -11.7030    1.1070    2.4250 c3        1 MOL      0.204909
    148 N13       -12.9310    0.5100    2.9610 n4        1 MOL     -0.397465
    149 H67        -7.6410    0.1870   -0.8800 hn        1 MOL      0.154180
    150 H68        -8.4380    2.6030   -2.3270 h1        1 MOL      0.134575
    151 H69       -10.5530    1.4840   -1.5290 hc        1 MOL      0.110305
    152 H70       -10.3570    3.0120   -0.7160 hc        1 MOL      0.110305
    153 H71        -9.7620    2.0010    1.3140 hc        1 MOL      0.065243
    154 H72        -9.5960    0.3740    0.5880 hc        1 MOL      0.065243
    155 H73       -11.8340    0.1030    0.5830 hc        1 MOL      0.015868
    156 H74       -12.2670    1.9210    0.4540 hc        1 MOL      0.015868
    157 H75       -11.6140    2.1240    2.8120 hx        1 MOL      0.054741
    158 H76       -10.8310    0.5580    2.8000 hx        1 MOL      0.054741
    159 H77       -13.2530   -0.1860    2.3040 hn        1 MOL      0.301384
    160 H78       -12.7540    0.1700    3.8940 hn        1 MOL      0.301384
    161 H79       -13.6620    1.2010    3.0410 hn        1 MOL      0.301384
    162 N14        -7.7470    4.0740   -0.2680 n         1 MOL     -0.284111
    163 C49        -7.2180    4.8850    0.8450 c3        1 MOL      0.058678
    164 C50        -5.6860    4.7990    1.0450 c         1 MOL      0.455983
    165 O22        -5.1980    4.5930    2.1560 o         1 MOL     -0.527478
    166 C51        -7.6400    6.3280    0.6860 c3        1 MOL     -0.148935
    167 C52        -7.5580    7.1900    1.9570 c3        1 MOL     -0.111902
    168 C53        -8.7260    6.9570    2.9450 c         1 MOL      0.678244
    169 O23        -9.5830    6.0330    2.8460 o         1 MOL     -0.676181
    170 O24        -8.7150    7.6930    3.9150 o         1 MOL     -0.676181
    171 H80        -8.4080    4.5550   -0.8690 hn        1 MOL      0.245461
    172 H81        -7.7090    4.5630    1.7680 h1        1 MOL      0.059903
    173 H82        -8.6540    6.1950    0.2950 hc        1 MOL      0.016606
    174 H83        -7.0340    6.7900   -0.0990 hc        1 MOL      0.016606
    175 H84        -7.5540    8.2490    1.7410 hc        1 MOL      0.050656
    176 H85        -6.5720    6.9950    2.3890 hc        1 MOL      0.050656
    177 N15        -4.7850    4.8750    0.0470 n         1 MOL     -0.350579
    178 C54        -4.9220    5.1410   -1.3270 c3        1 MOL      0.116110
    179 H86        -4.9930    6.2180   -1.4820 h1        1 MOL     -0.008454
    180 H87        -4.0550    4.7530   -1.8610 h1        1 MOL     -0.008454
    181 H88        -5.8260    4.6600   -1.7020 h1        1 MOL     -0.008454
    182 H89        -3.8920    4.4770    0.3000 hn        1 MOL      0.278420
    183 Ca1         6.6850    4.8130   -0.2600 Ca        1 MOL      1.679279
    184 O25         4.3780    5.5890   -1.4960 oh        1 MOL     -0.798464
    185 H90         3.7790    5.1930   -2.1280 ho        1 MOL      0.405779
    186 H91         5.0240    6.0490   -2.0340 ho        1 MOL      0.405779
    187 O26         6.9070    4.1340   -3.0450 oh        1 MOL     -0.798464
    188 H92         7.4630    4.4790   -3.7490 ho        1 MOL      0.405779
    189 H93         6.7430    3.2210   -3.2800 ho        1 MOL      0.405779
@<TRIPOS>BOND
     1    1    2 1   
     2    1    4 1   
     3    1    5 1   
     4    1    6 1   
     5    2    3 2   
     6    2    7 1   
     7    7    8 1   
     8    7   15 1   
     9    8    9 1   
    10    8   11 1   
    11    8   16 1   
    12    9   10 2   
    13    9   19 1   
    14   11   12 1   
    15   11   17 1   
    16   11   18 1   
    17   12   13 1   
    18   12   14 1   
    19   19   20 1   
    20   19   28 1   
    21   20   21 1   
    22   20   23 1   
    23   20   29 1   
    24   21   22 2   
    25   21   41 1   
    26   23   24 1   
    27   23   30 1   
    28   23   31 1   
    29   24   25 1   
    30   24   32 1   
    31   24   33 1   
    32   25   26 1   
    33   25   34 1   
    34   25   35 1   
    35   26   27 1   
    36   26   36 1   
    37   26   37 1   
    38   27   38 1   
    39   27   39 1   
    40   27   40 1   
    41   41   42 1   
    42   41   49 1   
    43   42   43 1   
    44   42   45 1   
    45   42   50 1   
    46   43   44 2   
    47   43   53 1   
    48   45   46 1   
    49   45   51 1   
    50   45   52 1   
    51   46   47 1   
    52   46   48 1   
    53   53   54 1   
    54   53   57 1   
    55   54   55 1   
    56   54   58 1   
    57   54   59 1   
    58   55   56 2   
    59   55   60 1   
    60   60   61 1   
    61   60   68 1   
    62   61   62 1   
    63   61   64 1   
    64   61   69 1   
    65   62   63 2   
    66   62   72 1   
    67   64   65 1   
    68   64   70 1   
    69   64   71 1   
    70   65   66 1   
    71   65   67 1   
    72   72   73 1   
    73   72   76 1   
    74   73   74 1   
    75   73   77 1   
    76   73   78 1   
    77   74   75 2   
    78   74   79 1   
    79   79   80 1   
    80   79   86 1   
    81   80   81 1   
    82   80   83 1   
    83   80   87 1   
    84   81   82 2   
    85   81   93 1   
    86   83   84 1   
    87   83   85 1   
    88   83   88 1   
    89   84   90 1   
    90   84   91 1   
    91   84   92 1   
    92   85   89 1   
    93   93   94 1   
    94   93  101 1   
    95   94   95 1   
    96   94   97 1   
    97   94  102 1   
    98   95   96 2   
    99   95  112 1   
   100   97   98 1   
   101   97   99 1   
   102   97  103 1   
   103   98  100 1   
   104   98  104 1   
   105   98  105 1   
   106   99  106 1   
   107   99  107 1   
   108   99  108 1   
   109  100  109 1   
   110  100  110 1   
   111  100  111 1   
   112  112  113 1   
   113  112  119 1   
   114  113  114 1   
   115  113  116 1   
   116  113  120 1   
   117  114  115 2   
   118  114  126 1   
   119  116  117 1   
   120  116  118 1   
   121  116  121 1   
   122  117  123 1   
   123  117  124 1   
   124  117  125 1   
   125  118  122 1   
   126  126  127 1   
   127  126  133 1   
   128  127  128 1   
   129  127  130 1   
   130  127  134 1   
   131  128  129 2   
   132  128  140 1   
   133  130  131 1   
   134  130  132 1   
   135  130  135 1   
   136  131  137 1   
   137  131  138 1   
   138  131  139 1   
   139  132  136 1   
   140  140  141 1   
   141  140  149 1   
   142  141  142 1   
   143  141  144 1   
   144  141  150 1   
   145  142  143 2   
   146  142  162 1   
   147  144  145 1   
   148  144  151 1   
   149  144  152 1   
   150  145  146 1   
   151  145  153 1   
   152  145  154 1   
   153  146  147 1   
   154  146  155 1   
   155  146  156 1   
   156  147  148 1   
   157  147  157 1   
   158  147  158 1   
   159  148  159 1   
   160  148  160 1   
   161  148  161 1   
   162  162  163 1   
   163  162  171 1   
   164  163  164 1   
   165  163  166 1   
   166  163  172 1   
   167  164  165 2   
   168  164  177 1   
   169  166  167 1   
   170  166  173 1   
   171  166  174 1   
   172  167  168 1   
   173  167  175 1   
   174  167  176 1   
   175  168  169 1   
   176  168  170 1   
   177  177  178 1   
   178  177  182 1   
   179  178  179 1   
   180  178  180 1   
   181  178  181 1   
   182  184  185 1   
   183  184  186 1   
   184  187  188 1   
   185  187  189 1   
@<TRIPOS>SUBSTRUCTURE
     1 MOL         1 TEMP              0 ****  ****    0 ROOT
