@<TRIPOS>MOLECULE
MOL
  186   183     1     0     0
SMALL
resp


@<TRIPOS>ATOM
      1 C1        -11.5870    3.9990    4.0350 c3        1 MOL     -0.489333
      2 C2        -11.4770    3.3600    2.6370 c         1 MOL      0.708482
      3 O1        -11.7550    2.1630    2.4940 o         1 MOL     -0.584577
      4 H1        -10.6040    4.0170    4.5040 hc        1 MOL      0.129840
      5 H2        -11.9620    5.0190    3.9400 hc        1 MOL      0.129840
      6 H3        -12.2720    3.4140    4.6490 hc        1 MOL      0.129840
      7 N1        -11.0890    4.1170    1.5680 n         1 MOL     -0.362801
      8 C3        -10.9420    3.5210    0.2360 c3        1 MOL     -0.466910
      9 C4         -9.8590    2.4710    0.0210 c         1 MOL      0.593305
     10 O2         -8.7230    2.6870    0.4340 o         1 MOL     -0.607193
     11 C5        -10.7310    4.6110   -0.8680 c3        1 MOL      0.407831
     12 C6         -9.6720    5.7220   -0.6720 c         1 MOL      0.560407
     13 O3         -8.8740    5.7790    0.3200 o         1 MOL     -0.693714
     14 O4         -9.6200    6.6640   -1.5180 o         1 MOL     -0.693714
     15 H4        -10.9480    5.1150    1.6310 hn        1 MOL      0.246593
     16 H5        -11.8870    3.0640   -0.0530 h1        1 MOL      0.128475
     17 H6        -11.6830    5.0840   -1.0800 hc        1 MOL     -0.047563
     18 H7        -10.5240    4.0010   -1.7520 hc        1 MOL     -0.047563
     19 N2        -10.0970    1.4010   -0.7240 n         1 MOL     -0.404823
     20 C7         -9.4010    0.1060   -0.6470 c3        1 MOL      0.065641
     21 C8         -7.9630   -0.0760   -1.1960 c         1 MOL      0.391906
     22 O5         -7.5730   -1.1510   -1.5140 o         1 MOL     -0.463490
     23 C9        -10.4120   -0.9960   -1.2150 c3        1 MOL     -0.267994
     24 C10       -11.4980   -1.1780   -0.1800 c3        1 MOL      0.032608
     25 C11       -12.6850   -1.8500   -0.8120 c3        1 MOL     -0.026083
     26 C12       -13.7580   -2.1540    0.1450 c3        1 MOL      0.105804
     27 N3        -14.9690   -2.8420   -0.4630 n4        1 MOL     -0.393927
     28 H8        -10.9600    1.4130   -1.2410 hn        1 MOL      0.276596
     29 H9         -9.4000   -0.1030    0.4160 h1        1 MOL      0.131976
     30 H10        -9.8940   -1.9480   -1.2590 hc        1 MOL      0.135963
     31 H11       -10.8050   -0.7890   -2.2000 hc        1 MOL      0.135963
     32 H12       -11.9910   -0.2600    0.1390 hc        1 MOL      0.024728
     33 H13       -11.1550   -1.7280    0.7020 hc        1 MOL      0.024728
     34 H14       -12.4740   -2.7720   -1.3430 hc        1 MOL      0.014430
     35 H15       -13.1030   -1.2430   -1.6080 hc        1 MOL      0.014430
     36 H16       -13.9990   -1.2720    0.7340 hx        1 MOL      0.065592
     37 H17       -13.4030   -2.7550    0.9750 hx        1 MOL      0.065592
     38 H18       -15.7210   -2.9420    0.1950 hn        1 MOL      0.296384
     39 H19       -15.2600   -2.3080   -1.2720 hn        1 MOL      0.296384
     40 H20       -14.7410   -3.7630   -0.7900 hn        1 MOL      0.296384
     41 N4         -7.1760    1.0150   -1.2770 n         1 MOL     -0.113652
     42 C13        -5.7160    0.9430   -1.3190 c3        1 MOL     -0.188163
     43 C14        -5.1600    1.2920    0.0480 c         1 MOL      0.646991
     44 O6         -5.7520    2.1630    0.6700 o         1 MOL     -0.707882
     45 C15        -5.1330    1.9740   -2.3080 c3        1 MOL     -0.194177
     46 C16        -5.7360    3.3970   -2.2240 c         1 MOL      0.497067
     47 O7         -5.3300    4.2060   -3.0710 o         1 MOL     -0.619025
     48 O8         -6.6160    3.7370   -1.4060 o         1 MOL     -0.619025
     49 H21        -7.6330    1.8730   -0.9930 hn        1 MOL      0.213215
     50 H22        -5.3050   -0.0540   -1.4700 h1        1 MOL      0.101210
     51 H23        -5.3530    1.6030   -3.3180 hc        1 MOL      0.112673
     52 H24        -4.0540    2.0710   -2.2290 hc        1 MOL      0.112673
     53 N5         -4.0470    0.7270    0.5460 n         1 MOL     -0.452147
     54 C17        -3.3290   -0.3850   -0.0360 c3        1 MOL      0.018125
     55 C18        -3.9930   -1.7130    0.0640 c         1 MOL      0.535326
     56 O9         -4.8820   -1.9850    0.9320 o         1 MOL     -0.532212
     57 H25        -3.5960    1.1860    1.3280 hn        1 MOL      0.284338
     58 H26        -2.3650   -0.4190    0.4670 h1        1 MOL      0.054832
     59 H27        -3.0890   -0.1750   -1.0880 h1        1 MOL      0.054832
     60 N6         -3.6800   -2.5110   -0.9730 n         1 MOL     -0.398390
     61 C19        -4.1800   -3.8560   -1.2710 c3        1 MOL      0.053980
     62 C20        -2.9890   -4.7660   -1.6240 c         1 MOL      0.517223
     63 O10        -2.0030   -4.3210   -2.1910 o         1 MOL     -0.515861
     64 C21        -5.2050   -3.7480   -2.4410 c3        1 MOL     -0.021173
     65 C22        -6.0470   -4.9450   -2.7280 c         1 MOL      0.586203
     66 O11        -6.2690   -5.7620   -1.8080 o         1 MOL     -0.641795
     67 O12        -6.6910   -4.9820   -3.7940 o         1 MOL     -0.641795
     68 H28        -3.0200   -2.1730   -1.6590 hn        1 MOL      0.251747
     69 H29        -4.7040   -4.3240   -0.4350 h1        1 MOL      0.026272
     70 H30        -4.5970   -3.5690   -3.3260 hc        1 MOL      0.016828
     71 H31        -5.7910   -2.8300   -2.5400 hc        1 MOL      0.016828
     72 N7         -3.0520   -5.9960   -1.1660 n         1 MOL     -0.358795
     73 C23        -1.9260   -6.9750   -0.9670 c3        1 MOL     -0.206214
     74 C24        -0.7520   -6.6310   -0.0650 c         1 MOL      0.505939
     75 O13        -0.1130   -7.5210    0.4260 o         1 MOL     -0.512791
     76 H32        -3.9040   -6.2810   -0.7100 hn        1 MOL      0.256310
     77 H33        -1.5830   -7.3100   -1.9460 h1        1 MOL      0.141855
     78 H34        -2.4160   -7.8570   -0.5700 h1        1 MOL      0.141855
     79 N8         -0.5700   -5.2900    0.3740 n         1 MOL     -0.238384
     80 C25         0.3580   -4.7710    1.3190 c3        1 MOL     -0.236921
     81 C26         0.9080   -3.4360    0.8050 c         1 MOL      0.618112
     82 O14         0.0950   -2.6650    0.2130 o         1 MOL     -0.552550
     83 C27        -0.2080   -4.6690    2.7330 c3        1 MOL      0.346130
     84 C28        -1.3490   -3.5970    2.9330 c3        1 MOL     -0.546987
     85 O15        -0.6710   -5.9520    3.1930 oh        1 MOL     -0.602739
     86 H35        -1.2230   -4.6390   -0.0420 hn        1 MOL      0.185073
     87 H36         1.1580   -5.4850    1.4960 h1        1 MOL      0.128947
     88 H37         0.5480   -4.4830    3.4970 h1        1 MOL      0.056795
     89 H38        -1.5510   -6.0580    2.8090 ho        1 MOL      0.399471
     90 H39        -1.4520   -3.4200    4.0060 hc        1 MOL      0.143136
     91 H40        -1.0690   -2.6540    2.4620 hc        1 MOL      0.143136
     92 H41        -2.2070   -4.0720    2.4630 hc        1 MOL      0.143136
     93 N9          2.1810   -3.1340    1.0020 n         1 MOL     -0.503750
     94 C29         2.7330   -1.8110    0.6610 c3        1 MOL      0.019482
     95 C30         4.1480   -1.8210   -0.0890 c         1 MOL      0.621026
     96 O16         4.4430   -0.9560   -0.9140 o         1 MOL     -0.538475
     97 C31         2.7890   -0.9530    1.9860 c3        1 MOL      0.044362
     98 C32         1.6250   -1.1520    2.9430 c3        1 MOL     -0.079852
     99 C33         2.8180    0.6340    1.5690 c3        1 MOL     -0.129173
    100 C34         1.8520   -0.5210    4.2450 c3        1 MOL     -0.224460
    101 H42         2.7740   -3.8970    1.2930 hn        1 MOL      0.271877
    102 H43         2.1060   -1.2900   -0.0620 h1        1 MOL      0.099012
    103 H44         3.7160   -1.1310    2.5380 hc        1 MOL      0.013564
    104 H45         1.4990   -2.2270    3.1070 hc        1 MOL      0.073760
    105 H46         0.7380   -0.7900    2.4180 hc        1 MOL      0.073760
    106 H47         3.2480    1.3440    2.2790 hc        1 MOL      0.036747
    107 H48         3.5990    0.5880    0.8120 hc        1 MOL      0.036747
    108 H49         1.8960    0.9970    1.1310 hc        1 MOL      0.036747
    109 H50         1.6600    0.5470    4.1580 hc        1 MOL      0.059222
    110 H51         1.1610   -0.8700    5.0120 hc        1 MOL      0.059222
    111 H52         2.8010   -0.7210    4.7490 hc        1 MOL      0.059222
    112 N10         5.0030   -2.8220    0.1000 n         1 MOL     -0.457214
    113 C35         6.4010   -2.9480   -0.4520 c3        1 MOL      0.015474
    114 C36         7.4780   -2.9030    0.6360 c         1 MOL      0.614291
    115 O17         7.2290   -3.4220    1.7080 o         1 MOL     -0.544246
    116 C37         6.5320   -4.2300   -1.2870 c3        1 MOL      0.366464
    117 C38         5.6000   -4.2410   -2.4490 c3        1 MOL     -0.338466
    118 O18         7.8250   -4.3880   -1.7150 oh        1 MOL     -0.647761
    119 H53         4.7600   -3.5090    0.8020 hn        1 MOL      0.260121
    120 H54         6.6180   -2.1830   -1.1960 h1        1 MOL      0.095345
    121 H55         6.2580   -5.0320   -0.6050 h1        1 MOL     -0.024935
    122 H56         7.8320   -5.2170   -2.1730 ho        1 MOL      0.416084
    123 H57         4.6030   -4.2910   -2.0220 hc        1 MOL      0.090427
    124 H58         5.6230   -3.3210   -3.0430 hc        1 MOL      0.090427
    125 H59         5.8570   -5.0920   -3.0750 hc        1 MOL      0.090427
    126 N11         8.6300   -2.2670    0.4550 n         1 MOL     -0.654248
    127 C39         9.6900   -2.2380    1.4600 c3        1 MOL      0.152026
    128 C40        10.3500   -0.8770    1.7930 c         1 MOL      0.787598
    129 O19        10.4640   -0.5940    2.9450 o         1 MOL     -0.601575
    130 C41        10.8160   -3.2090    1.0920 c3        1 MOL      0.345155
    131 C42        11.7310   -3.4170    2.3510 c3        1 MOL     -0.470466
    132 O20        11.5580   -2.7700   -0.0190 oh        1 MOL     -0.661609
    133 H60         8.8910   -1.8800   -0.4450 hn        1 MOL      0.354400
    134 H61         9.3150   -2.6020    2.4210 h1        1 MOL      0.060342
    135 H62        10.4320   -4.1960    0.8450 h1        1 MOL      0.016307
    136 H63        12.4220   -3.1770    0.0760 ho        1 MOL      0.395927
    137 H64        12.5850   -4.0570    2.1260 hc        1 MOL      0.117583
    138 H65        12.1480   -2.4480    2.6450 hc        1 MOL      0.117583
    139 H66        11.1270   -3.9320    3.0990 hc        1 MOL      0.117583
    140 N12        10.4730    0.0020    0.8250 n         1 MOL     -0.684654
    141 C43        10.8920    1.4400    0.8570 c3        1 MOL      0.111999
    142 C44        10.1430    2.2640   -0.1520 c         1 MOL      0.788517
    143 O21         9.8610    1.7870   -1.2590 o         1 MOL     -0.575103
    144 C45        12.3610    1.5650    0.6650 c3        1 MOL     -0.154518
    145 C46        12.8910    0.9280   -0.6410 c3        1 MOL      0.042723
    146 C47        13.6000    1.9470   -1.5310 c3        1 MOL     -0.195851
    147 C48        14.0880    1.2470   -2.8050 c3        1 MOL      0.207926
    148 N13        15.0710    1.9170   -3.6300 n4        1 MOL     -0.334410
    149 H67        10.3710   -0.3550   -0.1220 hn        1 MOL      0.303844
    150 H68        10.7230    1.8640    1.8500 h1        1 MOL      0.092517
    151 H69        12.8750    1.0400    1.4760 hc        1 MOL      0.048412
    152 H70        12.5080    2.6400    0.7780 hc        1 MOL      0.048412
    153 H71        12.0310    0.5260   -1.1710 hc        1 MOL      0.029321
    154 H72        13.5970    0.1270   -0.4420 hc        1 MOL      0.029321
    155 H73        14.4810    2.4170   -1.0790 hc        1 MOL      0.068705
    156 H74        12.8410    2.6630   -1.8380 hc        1 MOL      0.068705
    157 H75        13.1950    1.0100   -3.3800 hx        1 MOL      0.029644
    158 H76        14.4660    0.2620   -2.5370 hx        1 MOL      0.029644
    159 H77        15.3580    1.3410   -4.4050 hn        1 MOL      0.266127
    160 H78        14.6480    2.7680   -3.9800 hn        1 MOL      0.266127
    161 H79        15.8530    2.2040   -3.0630 hn        1 MOL      0.266127
    162 N14         9.6110    3.4120    0.2260 n         1 MOL     -0.801344
    163 C49         8.8140    4.3160   -0.6200 c3        1 MOL      0.386422
    164 C50         7.3060    4.0260   -0.5250 c         1 MOL      0.350218
    165 O22         6.6880    3.8730   -1.5870 o         1 MOL     -0.528998
    166 C51         9.2460    5.7660   -0.3770 c3        1 MOL      0.142902
    167 C52         8.4100    6.8470   -1.0810 c3        1 MOL     -0.151649
    168 C53         8.7930    8.2820   -0.7460 c         1 MOL      0.691718
    169 O23         9.2270    8.5420    0.3930 o         1 MOL     -0.652720
    170 O24         8.7960    9.1800   -1.6250 o         1 MOL     -0.652720
    171 H80         9.8000    3.7730    1.1520 hn        1 MOL      0.330717
    172 H81         9.0870    4.2380   -1.6720 h1        1 MOL      0.011637
    173 H82        10.2860    5.8950   -0.6900 hc        1 MOL     -0.057683
    174 H83         9.1960    5.9800    0.6860 hc        1 MOL     -0.057683
    175 H84         7.3960    6.6620   -0.7170 hc        1 MOL      0.009051
    176 H85         8.4320    6.6000   -2.1360 hc        1 MOL      0.009051
    177 N15         6.5840    4.1110    0.6110 n         1 MOL     -0.253487
    178 C54         6.9710    4.2450    2.0280 c3        1 MOL     -0.162743
    179 H86         8.0360    4.0370    2.1350 h1        1 MOL      0.085098
    180 H87         6.7650    5.2600    2.3670 h1        1 MOL      0.085098
    181 H88         6.4010    3.5370    2.6300 h1        1 MOL      0.085098
    182 H89         5.5830    4.0370    0.4750 hn        1 MOL      0.259925
    183 Ca1        -6.4470    4.7200    0.8880 Ca        1 MOL      1.726619
    184 O25        -7.8480    3.5790    2.8680 oh        1 MOL     -0.927266
    185 H90        -7.6880    3.1310    3.6980 ho        1 MOL      0.458749
    186 H91        -8.6080    3.1210    2.5020 ho        1 MOL      0.458749
@<TRIPOS>BOND
     1    1    2 1   
     2    1    4 1   
     3    1    5 1   
     4    1    6 1   
     5    2    3 2   
     6    2    7 1   
     7    7    8 1   
     8    7   15 1   
     9    8    9 1   
    10    8   11 1   
    11    8   16 1   
    12    9   10 2   
    13    9   19 1   
    14   11   12 1   
    15   11   17 1   
    16   11   18 1   
    17   12   13 1   
    18   12   14 1   
    19   19   20 1   
    20   19   28 1   
    21   20   21 1   
    22   20   23 1   
    23   20   29 1   
    24   21   22 2   
    25   21   41 1   
    26   23   24 1   
    27   23   30 1   
    28   23   31 1   
    29   24   25 1   
    30   24   32 1   
    31   24   33 1   
    32   25   26 1   
    33   25   34 1   
    34   25   35 1   
    35   26   27 1   
    36   26   36 1   
    37   26   37 1   
    38   27   38 1   
    39   27   39 1   
    40   27   40 1   
    41   41   42 1   
    42   41   49 1   
    43   42   43 1   
    44   42   45 1   
    45   42   50 1   
    46   43   44 2   
    47   43   53 1   
    48   45   46 1   
    49   45   51 1   
    50   45   52 1   
    51   46   47 1   
    52   46   48 1   
    53   53   54 1   
    54   53   57 1   
    55   54   55 1   
    56   54   58 1   
    57   54   59 1   
    58   55   56 2   
    59   55   60 1   
    60   60   61 1   
    61   60   68 1   
    62   61   62 1   
    63   61   64 1   
    64   61   69 1   
    65   62   63 2   
    66   62   72 1   
    67   64   65 1   
    68   64   70 1   
    69   64   71 1   
    70   65   66 1   
    71   65   67 1   
    72   72   73 1   
    73   72   76 1   
    74   73   74 1   
    75   73   77 1   
    76   73   78 1   
    77   74   75 2   
    78   74   79 1   
    79   79   80 1   
    80   79   86 1   
    81   80   81 1   
    82   80   83 1   
    83   80   87 1   
    84   81   82 2   
    85   81   93 1   
    86   83   84 1   
    87   83   85 1   
    88   83   88 1   
    89   84   90 1   
    90   84   91 1   
    91   84   92 1   
    92   85   89 1   
    93   93   94 1   
    94   93  101 1   
    95   94   95 1   
    96   94   97 1   
    97   94  102 1   
    98   95   96 2   
    99   95  112 1   
   100   97   98 1   
   101   97   99 1   
   102   97  103 1   
   103   98  100 1   
   104   98  104 1   
   105   98  105 1   
   106   99  106 1   
   107   99  107 1   
   108   99  108 1   
   109  100  109 1   
   110  100  110 1   
   111  100  111 1   
   112  112  113 1   
   113  112  119 1   
   114  113  114 1   
   115  113  116 1   
   116  113  120 1   
   117  114  115 2   
   118  114  126 1   
   119  116  117 1   
   120  116  118 1   
   121  116  121 1   
   122  117  123 1   
   123  117  124 1   
   124  117  125 1   
   125  118  122 1   
   126  126  127 1   
   127  126  133 1   
   128  127  128 1   
   129  127  130 1   
   130  127  134 1   
   131  128  129 2   
   132  128  140 1   
   133  130  131 1   
   134  130  132 1   
   135  130  135 1   
   136  131  137 1   
   137  131  138 1   
   138  131  139 1   
   139  132  136 1   
   140  140  141 1   
   141  140  149 1   
   142  141  142 1   
   143  141  144 1   
   144  141  150 1   
   145  142  143 2   
   146  142  162 1   
   147  144  145 1   
   148  144  151 1   
   149  144  152 1   
   150  145  146 1   
   151  145  153 1   
   152  145  154 1   
   153  146  147 1   
   154  146  155 1   
   155  146  156 1   
   156  147  148 1   
   157  147  157 1   
   158  147  158 1   
   159  148  159 1   
   160  148  160 1   
   161  148  161 1   
   162  162  163 1   
   163  162  171 1   
   164  163  164 1   
   165  163  166 1   
   166  163  172 1   
   167  164  165 2   
   168  164  177 1   
   169  166  167 1   
   170  166  173 1   
   171  166  174 1   
   172  167  168 1   
   173  167  175 1   
   174  167  176 1   
   175  168  169 1   
   176  168  170 1   
   177  177  178 1   
   178  177  182 1   
   179  178  179 1   
   180  178  180 1   
   181  178  181 1   
   182  184  185 1   
   183  184  186 1   
@<TRIPOS>SUBSTRUCTURE
     1 MOL         1 TEMP              0 ****  ****    0 ROOT
