@<TRIPOS>MOLECULE
MOL
  192   187     1     0     0
SMALL
resp


@<TRIPOS>ATOM
      1 C1         -5.8190   -2.9630    5.3580 c3        1 MOL     -0.228592
      2 C2         -5.2670   -2.4850    3.9720 c         1 MOL      0.662388
      3 O1         -4.6790   -3.2540    3.1980 o         1 MOL     -0.592684
      4 H1         -6.8450   -3.3110    5.2400 hc        1 MOL      0.056087
      5 H2         -5.2000   -3.7770    5.7360 hc        1 MOL      0.056087
      6 H3         -5.7980   -2.1320    6.0640 hc        1 MOL      0.056087
      7 N1         -5.4730   -1.2280    3.6060 n         1 MOL     -0.438862
      8 C3         -5.0780   -0.5890    2.3320 c3        1 MOL      0.414053
      9 C4         -3.5780   -0.7270    1.9300 c         1 MOL     -0.109099
     10 O2         -3.1480   -0.4220    0.8130 o         1 MOL     -0.223487
     11 C5         -5.4950    0.8960    2.1830 c3        1 MOL     -0.078723
     12 C6         -6.9020    1.1860    2.6160 c         1 MOL      0.619183
     13 O3         -7.7490    1.9270    2.0470 o         1 MOL     -0.660605
     14 O4         -7.3690    0.6220    3.5880 o         1 MOL     -0.660605
     15 H4         -5.8980   -0.5690    4.2410 hn        1 MOL      0.202149
     16 H5         -5.6890   -1.0480    1.5580 h1        1 MOL      0.007886
     17 H6         -5.3390    1.1820    1.1430 hc        1 MOL     -0.023175
     18 H7         -4.8190    1.4440    2.8400 hc        1 MOL     -0.023175
     19 N2         -2.7160   -1.0440    2.8940 n         1 MOL     -0.127655
     20 C7         -1.2870   -0.9100    2.7180 c3        1 MOL      0.158945
     21 C8         -0.5410   -2.0530    1.9720 c         1 MOL      0.220237
     22 O5         -0.9870   -3.1720    2.1160 o         1 MOL     -0.463579
     23 C9         -0.6950   -0.4500    4.0520 c3        1 MOL     -0.017662
     24 C10        -1.5790    0.6540    4.7240 c3        1 MOL      0.386975
     25 C11        -0.9050    1.1710    6.0660 c3        1 MOL     -0.264018
     26 C12        -2.0780    1.8660    6.7570 c3        1 MOL      0.268348
     27 N3         -1.6270    2.6180    7.9230 n4        1 MOL     -0.580197
     28 H8         -3.1110   -1.5170    3.6980 hn        1 MOL      0.189804
     29 H9         -0.9950   -0.1290    2.0230 h1        1 MOL      0.077443
     30 H10         0.2990   -0.0430    3.8990 hc        1 MOL     -0.014735
     31 H11        -0.6990   -1.2880    4.7470 hc        1 MOL     -0.014735
     32 H12        -2.5830    0.2780    4.9160 hc        1 MOL     -0.105758
     33 H13        -1.6920    1.4870    4.0260 hc        1 MOL     -0.105758
     34 H14        -0.2010    1.9660    5.8200 hc        1 MOL      0.075486
     35 H15        -0.4850    0.3690    6.6780 hc        1 MOL      0.075486
     36 H16        -2.7770    1.0650    6.9920 hx        1 MOL      0.020085
     37 H17        -2.5680    2.5290    6.0390 hx        1 MOL      0.020085
     38 H18        -0.7660    3.1060    7.6920 hn        1 MOL      0.382401
     39 H19        -2.2710    3.3790    8.1030 hn        1 MOL      0.382401
     40 H20        -1.4710    1.9500    8.6630 hn        1 MOL      0.382401
     41 N4          0.4290   -1.9520    1.0670 n         1 MOL      0.069741
     42 C13         1.1760   -0.8050    0.4970 c3        1 MOL     -0.420718
     43 C14         1.6190    0.3810    1.4250 c         1 MOL      0.597761
     44 O6          0.9470    1.3510    1.5420 o         1 MOL     -0.546923
     45 C15         0.5120   -0.3670   -0.8840 c3        1 MOL     -0.618606
     46 C16         0.5310   -1.4800   -1.9600 c         1 MOL      0.782939
     47 O7         -0.1700   -1.3810   -3.0120 o         1 MOL     -0.671548
     48 O8          1.2640   -2.4780   -1.8080 o         1 MOL     -0.671548
     49 H21         0.6130   -2.8550    0.6560 hn        1 MOL      0.078877
     50 H22         2.1460   -1.2370    0.2190 h1        1 MOL      0.052940
     51 H23         1.0590    0.4840   -1.2770 hc        1 MOL      0.228375
     52 H24        -0.5150   -0.0330   -0.6850 hc        1 MOL      0.228375
     53 N5          2.7160    0.3200    2.2010 n         1 MOL     -0.365497
     54 C17         3.6690   -0.8020    2.3130 c3        1 MOL     -0.042296
     55 C18         4.4270   -0.8280    3.6090 c         1 MOL      0.566432
     56 O9          4.0380   -0.2190    4.6300 o         1 MOL     -0.571492
     57 H25         2.9600    1.1770    2.6660 hn        1 MOL      0.286752
     58 H26         4.4400   -0.6370    1.5550 h1        1 MOL      0.094801
     59 H27         3.1250   -1.7300    2.1190 h1        1 MOL      0.094801
     60 N6          5.6340   -1.4540    3.5900 n         1 MOL     -0.515831
     61 C19         6.1840   -2.3910    2.6450 c3        1 MOL      0.090941
     62 C20         7.0580   -1.7520    1.5850 c         1 MOL      0.489003
     63 O10         7.5430   -0.6350    1.7550 o         1 MOL     -0.435589
     64 C21         6.9090   -3.5610    3.3280 c3        1 MOL     -0.190553
     65 C22         7.9820   -3.0940    4.3570 c         1 MOL      0.756797
     66 O11         9.1460   -3.5400    4.1860 o         1 MOL     -0.674408
     67 O12         7.7060   -2.3520    5.2780 o         1 MOL     -0.674408
     68 H28         6.2160   -1.3890    4.4080 hn        1 MOL      0.325014
     69 H29         5.3060   -2.8050    2.1550 h1        1 MOL     -0.003251
     70 H30         7.3610   -4.1950    2.5680 hc        1 MOL      0.023082
     71 H31         6.3160   -4.2730    3.9030 hc        1 MOL      0.023082
     72 N7          7.2220   -2.3710    0.3770 n         1 MOL     -0.360991
     73 C23         7.9250   -1.7980   -0.8280 c3        1 MOL     -0.039575
     74 C24         7.5790   -0.4150   -1.1950 c         1 MOL      0.482239
     75 O13         8.5170    0.4080   -1.3220 o         1 MOL     -0.517195
     76 H32         6.6420   -3.1900    0.2720 hn        1 MOL      0.191156
     77 H33         7.9830   -2.4770   -1.6730 h1        1 MOL      0.086595
     78 H34         8.9900   -1.8170   -0.5920 h1        1 MOL      0.086595
     79 N8          6.2830   -0.1010   -1.3520 n         1 MOL     -0.505381
     80 C25         5.7650    1.0870   -2.0140 c3        1 MOL      0.426643
     81 C26         4.7130    1.8140   -1.1370 c         1 MOL      0.230549
     82 O14         3.9030    1.1530   -0.4790 o         1 MOL     -0.362244
     83 C27         5.2770    0.7820   -3.4100 c3        1 MOL      0.383167
     84 C28         6.4230    0.5830   -4.3570 c3        1 MOL     -0.397502
     85 O15         4.4530    1.7140   -3.9900 oh        1 MOL     -0.619316
     86 H35         5.6930   -0.9080   -1.2290 hn        1 MOL      0.172479
     87 H36         6.5020    1.8870   -2.0860 h1        1 MOL     -0.015959
     88 H37         4.6250   -0.0860   -3.3460 h1        1 MOL     -0.098437
     89 H38         3.8630    1.0760   -4.4000 ho        1 MOL      0.420603
     90 H39         7.0000   -0.3080   -4.0870 hc        1 MOL      0.097364
     91 H40         6.0760    0.3790   -5.3670 hc        1 MOL      0.097364
     92 H41         7.0470    1.4800   -4.3020 hc        1 MOL      0.097364
     93 N9          4.5620    3.1490   -1.1370 n         1 MOL     -0.126949
     94 C29         3.6870    3.8660   -0.2020 c3        1 MOL     -0.446262
     95 C30         2.3610    4.3110   -0.8150 c         1 MOL      0.528461
     96 O16         1.5950    4.9330   -0.1170 o         1 MOL     -0.587956
     97 C31         4.4610    5.0920    0.3900 c3        1 MOL      0.301587
     98 C32         4.7620    6.1280   -0.6800 c3        1 MOL      0.064308
     99 C33         5.7520    4.5920    1.1070 c3        1 MOL     -0.297615
    100 C34         4.6950    7.6020   -0.2540 c3        1 MOL     -0.206165
    101 H42         5.1760    3.6810   -1.7400 hn        1 MOL      0.232666
    102 H43         3.4270    3.2240    0.6430 h1        1 MOL      0.217266
    103 H44         3.9350    5.5200    1.2500 hc        1 MOL      0.006420
    104 H45         3.9770    6.0380   -1.4330 hc        1 MOL     -0.006849
    105 H46         5.6980    5.8940   -1.1770 hc        1 MOL     -0.006849
    106 H47         5.3550    3.8590    1.8190 hc        1 MOL      0.069488
    107 H48         6.5260    4.1390    0.4840 hc        1 MOL      0.069488
    108 H49         6.2870    5.4120    1.5800 hc        1 MOL      0.069488
    109 H50         5.2460    8.3030   -0.8880 hc        1 MOL      0.048573
    110 H51         3.6820    8.0090   -0.1710 hc        1 MOL      0.048573
    111 H52         5.0730    7.6770    0.7580 hc        1 MOL      0.048573
    112 N10         2.0120    3.9170   -1.9930 n         1 MOL     -0.075023
    113 C35         0.8590    4.3980   -2.8070 c3        1 MOL      0.057796
    114 C36        -0.5150    4.1480   -2.1620 c         1 MOL      0.275858
    115 O17        -1.5030    4.8380   -2.4610 o         1 MOL     -0.502567
    116 C37         0.9200    3.8120   -4.1750 c3        1 MOL      0.111067
    117 C38         0.7960    2.2950   -4.1370 c3        1 MOL     -0.052240
    118 O18         2.1880    4.0710   -4.7720 oh        1 MOL     -0.608160
    119 H53         2.7760    3.4370   -2.4530 hn        1 MOL      0.067060
    120 H54         0.8530    5.4910   -2.8610 h1        1 MOL      0.089265
    121 H55         0.1170    4.2410   -4.7740 h1        1 MOL      0.078266
    122 H56         2.2260    3.6120   -5.6190 ho        1 MOL      0.388687
    123 H57         1.0760    1.8880   -5.1160 hc        1 MOL      0.022588
    124 H58         1.4610    1.8830   -3.3780 hc        1 MOL      0.022588
    125 H59        -0.2260    1.9630   -3.9260 hc        1 MOL      0.022588
    126 N11        -0.5880    3.1600   -1.2720 n         1 MOL     -0.133955
    127 C39        -1.8540    2.6920   -0.5980 c3        1 MOL      0.016356
    128 C40        -2.8710    2.1460   -1.6690 c         1 MOL      0.295654
    129 O19        -2.5650    2.2100   -2.8520 o         1 MOL     -0.446892
    130 C41        -2.4030    3.7960    0.3230 c3        1 MOL      0.446078
    131 C42        -1.4900    4.1670    1.4060 c3        1 MOL     -0.317718
    132 O20        -3.5770    3.3210    0.8690 oh        1 MOL     -0.636477
    133 H60         0.2450    2.7420   -0.8790 hn        1 MOL      0.194972
    134 H61        -1.5560    1.7540   -0.1300 h1        1 MOL      0.048259
    135 H62        -2.6420    4.6910   -0.2510 h1        1 MOL     -0.006940
    136 H63        -3.8930    4.0810    1.3490 ho        1 MOL      0.382629
    137 H64        -0.4510    4.3830    1.1650 hc        1 MOL      0.068585
    138 H65        -1.9840    5.0180    1.8960 hc        1 MOL      0.068585
    139 H66        -1.4710    3.2520    1.9970 hc        1 MOL      0.068585
    140 N12        -3.9520    1.3910   -1.2800 n         1 MOL     -0.142679
    141 C43        -5.0680    0.9370   -2.2310 c3        1 MOL     -0.081731
    142 C44        -5.0960   -0.6040   -2.2920 c         1 MOL      0.511234
    143 O21        -5.8030   -1.0930   -3.1140 o         1 MOL     -0.577846
    144 C45        -6.4590    1.5370   -1.7190 c3        1 MOL     -0.120941
    145 C46        -6.4940    3.1100   -1.6550 c3        1 MOL      0.037965
    146 C47        -7.8580    3.5230   -1.1830 c3        1 MOL     -0.013341
    147 C48        -8.9920    3.1550   -2.1120 c3        1 MOL      0.107606
    148 N13       -10.3170    3.0670   -1.5000 n4        1 MOL     -0.336365
    149 H67        -4.1810    1.3930   -0.2920 hn        1 MOL      0.223608
    150 H68        -4.8970    1.1760   -3.2800 h1        1 MOL      0.106878
    151 H69        -6.6760    1.1050   -0.7420 hc        1 MOL      0.067300
    152 H70        -7.1860    1.1450   -2.4300 hc        1 MOL      0.067300
    153 H71        -6.2280    3.6030   -2.5990 hc        1 MOL      0.018339
    154 H72        -5.8160    3.4840   -0.8880 hc        1 MOL      0.018339
    155 H73        -7.9070    4.5970   -1.0170 hc        1 MOL     -0.008343
    156 H74        -7.8640    3.0310   -0.2070 hc        1 MOL     -0.008343
    157 H75        -8.7290    2.2580   -2.6830 hx        1 MOL      0.045597
    158 H76        -9.0670    3.9280   -2.8720 hx        1 MOL      0.045597
    159 H77       -11.0940    2.9850   -2.1300 hn        1 MOL      0.316969
    160 H78       -10.3170    2.3020   -0.8360 hn        1 MOL      0.316969
    161 H79       -10.6060    3.8030   -0.8680 hn        1 MOL      0.316969
    162 N14        -4.2640   -1.3680   -1.6370 n         1 MOL     -0.176232
    163 C49        -4.0720   -2.8180   -1.7360 c3        1 MOL     -0.136524
    164 C50        -5.4110   -3.5250   -1.4510 c         1 MOL      0.437430
    165 O22        -6.1660   -3.1510   -0.5860 o         1 MOL     -0.493373
    166 C51        -3.0140   -3.2700   -0.6480 c3        1 MOL      0.516807
    167 C52        -2.6320   -4.7390   -0.7750 c3        1 MOL     -0.793449
    168 C53        -2.2200   -5.1690   -2.1900 c         1 MOL      0.683390
    169 O23        -3.0670   -5.5380   -3.0360 o         1 MOL     -0.682544
    170 O24        -1.0140   -5.1250   -2.5340 o         1 MOL     -0.682544
    171 H80        -3.7010   -0.9200   -0.9340 hn        1 MOL      0.011534
    172 H81        -3.8260   -2.9850   -2.7810 h1        1 MOL      0.135967
    173 H82        -3.3550   -3.0860    0.3750 hc        1 MOL      0.004442
    174 H83        -2.1310   -2.6750   -0.8940 hc        1 MOL      0.004442
    175 H84        -3.3960   -5.3910   -0.3390 hc        1 MOL      0.180494
    176 H85        -1.8410   -5.0310   -0.0830 hc        1 MOL      0.180494
    177 N15        -5.6300   -4.6410   -2.1740 n         1 MOL     -0.413113
    178 C54        -6.9770   -5.2410   -2.1500 c3        1 MOL      0.089902
    179 H86        -7.3480   -5.3390   -3.1700 h1        1 MOL      0.014883
    180 H87        -6.9290   -6.2260   -1.6850 h1        1 MOL      0.014883
    181 H88        -7.6500   -4.6010   -1.5800 h1        1 MOL      0.014883
    182 H89        -4.9070   -4.9200   -2.8330 hn        1 MOL      0.360713
    183 Ca1         1.4150   -4.8360   -2.5800 Ca        1 MOL      1.589357
    184 O25         2.9150   -3.0310   -4.1300 oh        1 MOL     -0.787124
    185 H90         2.7380   -2.1610   -4.4980 ho        1 MOL      0.398872
    186 H91         3.8710   -3.0970   -4.1360 ho        1 MOL      0.398872
    187 O26         0.7000   -5.0410   -5.1300 oh        1 MOL     -0.787124
    188 H92         1.1450   -4.9110   -5.9600 ho        1 MOL      0.398872
    189 H93        -0.0180   -5.6480   -5.3290 ho        1 MOL      0.398872
    190 O27         3.5740   -6.0900   -3.9850 oh        1 MOL     -0.787124
    191 H94         4.3470   -5.5600   -3.7930 ho        1 MOL      0.398872
    192 H95         3.8540   -6.9890   -3.8230 ho        1 MOL      0.398872
@<TRIPOS>BOND
     1    1    2 1   
     2    1    4 1   
     3    1    5 1   
     4    1    6 1   
     5    2    3 2   
     6    2    7 1   
     7    7    8 1   
     8    7   15 1   
     9    8    9 1   
    10    8   11 1   
    11    8   16 1   
    12    9   10 2   
    13    9   19 1   
    14   11   12 1   
    15   11   17 1   
    16   11   18 1   
    17   12   13 1   
    18   12   14 1   
    19   19   20 1   
    20   19   28 1   
    21   20   21 1   
    22   20   23 1   
    23   20   29 1   
    24   21   22 2   
    25   21   41 1   
    26   23   24 1   
    27   23   30 1   
    28   23   31 1   
    29   24   25 1   
    30   24   32 1   
    31   24   33 1   
    32   25   26 1   
    33   25   34 1   
    34   25   35 1   
    35   26   27 1   
    36   26   36 1   
    37   26   37 1   
    38   27   38 1   
    39   27   39 1   
    40   27   40 1   
    41   41   42 1   
    42   41   49 1   
    43   42   43 1   
    44   42   45 1   
    45   42   50 1   
    46   43   44 2   
    47   43   53 1   
    48   45   46 1   
    49   45   51 1   
    50   45   52 1   
    51   46   47 1   
    52   46   48 1   
    53   53   54 1   
    54   53   57 1   
    55   54   55 1   
    56   54   58 1   
    57   54   59 1   
    58   55   56 2   
    59   55   60 1   
    60   60   61 1   
    61   60   68 1   
    62   61   62 1   
    63   61   64 1   
    64   61   69 1   
    65   62   63 2   
    66   62   72 1   
    67   64   65 1   
    68   64   70 1   
    69   64   71 1   
    70   65   66 1   
    71   65   67 1   
    72   72   73 1   
    73   72   76 1   
    74   73   74 1   
    75   73   77 1   
    76   73   78 1   
    77   74   75 2   
    78   74   79 1   
    79   79   80 1   
    80   79   86 1   
    81   80   81 1   
    82   80   83 1   
    83   80   87 1   
    84   81   82 2   
    85   81   93 1   
    86   83   84 1   
    87   83   85 1   
    88   83   88 1   
    89   84   90 1   
    90   84   91 1   
    91   84   92 1   
    92   85   89 1   
    93   93   94 1   
    94   93  101 1   
    95   94   95 1   
    96   94   97 1   
    97   94  102 1   
    98   95   96 2   
    99   95  112 1   
   100   97   98 1   
   101   97   99 1   
   102   97  103 1   
   103   98  100 1   
   104   98  104 1   
   105   98  105 1   
   106   99  106 1   
   107   99  107 1   
   108   99  108 1   
   109  100  109 1   
   110  100  110 1   
   111  100  111 1   
   112  112  113 1   
   113  112  119 1   
   114  113  114 1   
   115  113  116 1   
   116  113  120 1   
   117  114  115 2   
   118  114  126 1   
   119  116  117 1   
   120  116  118 1   
   121  116  121 1   
   122  117  123 1   
   123  117  124 1   
   124  117  125 1   
   125  118  122 1   
   126  126  127 1   
   127  126  133 1   
   128  127  128 1   
   129  127  130 1   
   130  127  134 1   
   131  128  129 2   
   132  128  140 1   
   133  130  131 1   
   134  130  132 1   
   135  130  135 1   
   136  131  137 1   
   137  131  138 1   
   138  131  139 1   
   139  132  136 1   
   140  140  141 1   
   141  140  149 1   
   142  141  142 1   
   143  141  144 1   
   144  141  150 1   
   145  142  143 2   
   146  142  162 1   
   147  144  145 1   
   148  144  151 1   
   149  144  152 1   
   150  145  146 1   
   151  145  153 1   
   152  145  154 1   
   153  146  147 1   
   154  146  155 1   
   155  146  156 1   
   156  147  148 1   
   157  147  157 1   
   158  147  158 1   
   159  148  159 1   
   160  148  160 1   
   161  148  161 1   
   162  162  163 1   
   163  162  171 1   
   164  163  164 1   
   165  163  166 1   
   166  163  172 1   
   167  164  165 2   
   168  164  177 1   
   169  166  167 1   
   170  166  173 1   
   171  166  174 1   
   172  167  168 1   
   173  167  175 1   
   174  167  176 1   
   175  168  169 1   
   176  168  170 1   
   177  177  178 1   
   178  177  182 1   
   179  178  179 1   
   180  178  180 1   
   181  178  181 1   
   182  184  185 1   
   183  184  186 1   
   184  187  188 1   
   185  187  189 1   
   186  190  191 1   
   187  190  192 1   
@<TRIPOS>SUBSTRUCTURE
     1 MOL         1 TEMP              0 ****  ****    0 ROOT
