@<TRIPOS>MOLECULE
MOL
  181   177     1     0     0
SMALL
resp


@<TRIPOS>ATOM
      1 C1          9.7050    7.4170   -1.4920 c3        1 MOL     -0.346182
      2 C2          9.0890    6.1270   -0.8310 c         1 MOL      0.692035
      3 O1          7.9960    6.0850   -0.3470 o         1 MOL     -0.576789
      4 H1         10.4020    7.8830   -0.7950 hc        1 MOL      0.091626
      5 H2         10.2330    7.1410   -2.4040 hc        1 MOL      0.091626
      6 H3          8.9070    8.1190   -1.7320 hc        1 MOL      0.091626
      7 N1          9.7030    4.9600   -0.8110 n         1 MOL     -0.539057
      8 C3         10.8270    4.3960   -1.6160 c3        1 MOL      0.070287
      9 C4         11.7430    3.5510   -0.8140 c         1 MOL      0.642639
     10 O2         12.7780    3.2680   -1.3000 o         1 MOL     -0.565314
     11 C5         10.2590    3.6290   -2.8510 c3        1 MOL     -0.183346
     12 C6          9.2760    2.5050   -2.5210 c         1 MOL      0.738084
     13 O3          9.4660    1.7730   -1.5050 o         1 MOL     -0.705770
     14 O4          8.3080    2.2450   -3.2660 o         1 MOL     -0.705770
     15 H4          9.1750    4.3530   -0.2130 hn        1 MOL      0.290355
     16 H5         11.3440    5.2900   -1.9640 h1        1 MOL      0.064522
     17 H6         11.0630    3.1340   -3.3920 hc        1 MOL      0.048826
     18 H7          9.8630    4.3850   -3.5280 hc        1 MOL      0.048826
     19 N2         11.5130    3.4770    0.5030 n         1 MOL     -0.714282
     20 C7         12.3000    2.6520    1.3710 c3        1 MOL      0.607362
     21 C8         11.6580    1.3230    1.8470 c         1 MOL      0.218873
     22 O5         12.2020    0.7250    2.8070 o         1 MOL     -0.529515
     23 C9         12.7110    3.5820    2.4740 c3        1 MOL     -0.331370
     24 H8         10.5860    3.6690    0.8590 hn        1 MOL      0.320463
     25 H9         13.2150    2.3540    0.8490 h1        1 MOL     -0.016595
     26 H10        11.8820    3.7960    3.1500 hc        1 MOL      0.069441
     27 H11        13.4710    2.9990    2.9900 hc        1 MOL      0.069441
     28 H12        13.1040    4.5290    2.0930 hc        1 MOL      0.069441
     29 N3         10.6400    0.7350    1.2280 n         1 MOL     -0.043262
     30 C10        10.0990   -0.5900    1.6500 c3        1 MOL     -0.019186
     31 C11         9.6550   -1.5550    0.5140 c         1 MOL      0.392338
     32 O6          9.6060   -1.1790   -0.6690 o         1 MOL     -0.472246
     33 C12         8.8910   -0.3400    2.6250 c3        1 MOL     -0.202446
     34 C13         7.7670    0.4340    1.9810 c         1 MOL      0.717642
     35 O7          7.1060    1.2020    2.6840 o         1 MOL     -0.666449
     36 O8          7.4340    0.2580    0.7890 o         1 MOL     -0.666449
     37 H13        10.2570    1.2170    0.4230 hn        1 MOL      0.027815
     38 H14        10.9290   -1.0480    2.1750 h1        1 MOL      0.065093
     39 H15         9.2150    0.1400    3.5470 hc        1 MOL      0.063159
     40 H16         8.5100   -1.3270    2.9170 hc        1 MOL      0.063159
     41 N4          9.3960   -2.8640    0.8180 n         1 MOL     -0.246970
     42 C14         8.8760   -3.8450   -0.1720 c3        1 MOL     -0.365408
     43 C15         7.4430   -3.5880   -0.7310 c         1 MOL      0.751772
     44 O9          7.0860   -2.4840   -1.2080 o         1 MOL     -0.676084
     45 H17         9.4100   -3.1270    1.7910 hn        1 MOL      0.266162
     46 H18         8.8210   -4.8180    0.3250 h1        1 MOL      0.144104
     47 H19         9.5790   -3.8860   -1.0080 h1        1 MOL      0.144104
     48 N5          6.5810   -4.6080   -0.6230 n         1 MOL     -0.603398
     49 C16         5.2070   -4.7280   -1.1570 c3        1 MOL      0.455602
     50 C17         4.0270   -4.6110   -0.1440 c         1 MOL      0.509689
     51 O10         4.0550   -5.3070    0.8980 o         1 MOL     -0.551518
     52 C18         5.0490   -6.0350   -1.9870 c3        1 MOL     -0.546014
     53 C19         3.7190   -6.1020   -2.8030 c         1 MOL      0.763366
     54 N6          3.1860   -7.2630   -3.0730 n         1 MOL     -0.814421
     55 O11         3.1190   -5.0960   -3.1070 o         1 MOL     -0.534892
     56 H20         6.9000   -5.4470   -0.1550 hn        1 MOL      0.308188
     57 H21         5.0380   -3.9820   -1.9240 h1        1 MOL     -0.036344
     58 H22         5.1790   -6.8840   -1.3180 hc        1 MOL      0.126616
     59 H23         5.8090   -6.0370   -2.7710 hc        1 MOL      0.126616
     60 H24         3.5760   -8.1300   -2.7150 hn        1 MOL      0.373948
     61 H25         2.2440   -7.4000   -3.3920 hn        1 MOL      0.373948
     62 N7          3.0040   -3.7710   -0.4630 n         1 MOL     -0.428185
     63 C20         1.7330   -3.5760    0.3040 c3        1 MOL      0.109018
     64 C21         1.6480   -2.1870    0.9710 c         1 MOL      0.547224
     65 O12         2.5000   -1.3530    0.6550 o         1 MOL     -0.509318
     66 H26         3.0150   -3.5230   -1.4420 hn        1 MOL      0.239457
     67 H27         1.6340   -4.4080    1.0100 h1        1 MOL      0.072985
     68 H28         0.8880   -3.7890   -0.3390 h1        1 MOL      0.072985
     69 N8          0.7580   -1.8390    1.9230 n         1 MOL     -0.712467
     70 C22        -0.3110   -2.7440    2.4750 c3        1 MOL      0.324803
     71 C23        -1.6840   -2.2040    2.4620 c         1 MOL      0.475432
     72 O13        -2.7170   -2.9340    2.4340 o         1 MOL     -0.570170
     73 C24         0.0390   -3.2540    3.9520 c3        1 MOL      0.318571
     74 C25        -0.6670   -4.6510    4.2800 c3        1 MOL     -0.577461
     75 O14         1.4230   -3.5470    4.0060 oh        1 MOL     -0.606562
     76 H29         0.8940   -0.8780    2.1870 hn        1 MOL      0.367321
     77 H30        -0.3780   -3.6570    1.8860 h1        1 MOL     -0.009036
     78 H31        -0.1680   -2.4110    4.6130 h1        1 MOL      0.000310
     79 H32         1.9350   -2.8060    4.3300 ho        1 MOL      0.389836
     80 H33        -1.7450   -4.4770    4.3520 hc        1 MOL      0.161999
     81 H34        -0.5370   -5.3110    3.4150 hc        1 MOL      0.161999
     82 H35        -0.1080   -5.0510    5.1230 hc        1 MOL      0.161999
     83 N9         -1.8750   -0.9030    2.3090 n         1 MOL     -0.477398
     84 C26        -3.2580   -0.2830    2.2330 c3        1 MOL      0.215984
     85 C27        -3.5130    0.1420    0.7330 c         1 MOL      0.572956
     86 O15        -2.6410    0.7280    0.1020 o         1 MOL     -0.605169
     87 C28        -3.1880    0.9950    3.2070 c3        1 MOL      0.031076
     88 C29        -2.4680    0.6660    4.5320 c3        1 MOL      0.011410
     89 C30        -4.6210    1.5350    3.3780 c3        1 MOL     -0.290687
     90 C31        -3.0050   -0.5300    5.3000 c3        1 MOL     -0.339448
     91 H36        -1.0710   -0.2900    2.2810 hn        1 MOL      0.240553
     92 H37        -3.9920   -0.9830    2.6400 h1        1 MOL      0.104284
     93 H38        -2.6170    1.7490    2.6720 hc        1 MOL     -0.012613
     94 H39        -2.5830    1.5530    5.1470 hc        1 MOL      0.008160
     95 H40        -1.3990    0.5530    4.3710 hc        1 MOL      0.008160
     96 H41        -4.7490    2.2730    2.5770 hc        1 MOL      0.108433
     97 H42        -5.3120    0.7010    3.2580 hc        1 MOL      0.108433
     98 H43        -4.6930    2.0630    4.3300 hc        1 MOL      0.108433
     99 H44        -2.7390   -0.3040    6.3400 hc        1 MOL      0.081886
    100 H45        -4.0830   -0.4710    5.1640 hc        1 MOL      0.081886
    101 H46        -2.5780   -1.4570    4.9400 hc        1 MOL      0.081886
    102 N10        -4.6610   -0.0800    0.0870 n         1 MOL     -0.507376
    103 C32        -5.8350   -0.7900    0.5080 c3        1 MOL      0.304624
    104 C33        -7.1320   -0.2190   -0.2290 c         1 MOL      0.375354
    105 O16        -7.0190    0.5850   -1.1260 o         1 MOL     -0.469928
    106 C34        -5.7160   -2.3030    0.2120 c3        1 MOL     -0.193834
    107 C35        -5.3630   -2.6540   -1.2210 c         1 MOL      0.731891
    108 O17        -5.0710   -3.8440   -1.4530 o         1 MOL     -0.730895
    109 O18        -5.3610   -1.8750   -2.2130 o         1 MOL     -0.730895
    110 H47        -4.6840    0.2230   -0.8790 hn        1 MOL      0.327566
    111 H48        -5.9380   -0.7640    1.5900 h1        1 MOL     -0.037777
    112 H49        -6.6440   -2.8190    0.4760 hc        1 MOL      0.001012
    113 H50        -4.8870   -2.6890    0.8150 hc        1 MOL      0.001012
    114 N11        -8.3130   -0.7520    0.1860 n         1 MOL     -0.582149
    115 C36        -9.6040   -0.5510   -0.4710 c3        1 MOL      0.449529
    116 C37       -10.6950   -0.2690    0.5500 c         1 MOL      0.141168
    117 O19       -10.6890   -0.8450    1.5780 o         1 MOL     -0.480753
    118 C38        -9.9060   -1.8140   -1.2840 c3        1 MOL     -0.237634
    119 C39       -11.1860   -1.8590   -2.0790 ca        1 MOL      0.091559
    120 C40       -12.4140   -2.0810   -1.4080 ca        1 MOL     -0.184759
    121 C41       -11.0860   -1.6660   -3.4850 ca        1 MOL     -0.184759
    122 C42       -13.6200   -2.0790   -2.1600 ca        1 MOL     -0.102007
    123 C43       -12.2830   -1.7460   -4.2330 ca        1 MOL     -0.102007
    124 C44       -13.5550   -1.8300   -3.5510 ca        1 MOL     -0.142942
    125 H51        -8.2450   -1.5440    0.7960 hn        1 MOL      0.329571
    126 H52        -9.4520    0.3060   -1.1230 h1        1 MOL     -0.009587
    127 H53        -9.7790   -2.6870   -0.6350 hc        1 MOL      0.094396
    128 H54        -8.9940   -1.9310   -1.8780 hc        1 MOL      0.094396
    129 H55       -12.3630   -2.2630   -0.3390 ha        1 MOL      0.146068
    130 H56       -10.1270   -1.6110   -3.9960 ha        1 MOL      0.146068
    131 H57       -14.5560   -2.3350   -1.6770 ha        1 MOL      0.104939
    132 H58       -12.2760   -1.8210   -5.3040 ha        1 MOL      0.104939
    133 H59       -14.4730   -1.8940   -4.1120 ha        1 MOL      0.093149
    134 N12       -11.7090    0.5300    0.2230 n         1 MOL      0.177031
    135 C45       -11.8620    1.2880   -1.0290 c3        1 MOL     -0.064561
    136 C46       -10.8590    2.4030   -1.2550 c         1 MOL      0.492541
    137 O20       -10.7470    2.8460   -2.3790 o         1 MOL     -0.540595
    138 C47       -13.2610    1.8110   -1.0010 c3        1 MOL     -0.060248
    139 C48       -13.9360    1.1590    0.1380 c3        1 MOL     -0.029653
    140 C49       -12.8250    0.8150    1.0890 c3        1 MOL     -0.164042
    141 H60       -11.7280    0.6220   -1.8820 h1        1 MOL      0.068112
    142 H61       -13.2230    2.8850   -0.8230 hc        1 MOL      0.038235
    143 H62       -13.7820    1.6470   -1.9480 hc        1 MOL      0.038235
    144 H63       -14.7600    1.7650    0.5190 hc        1 MOL      0.016451
    145 H64       -14.4390    0.2430   -0.1640 hc        1 MOL      0.016451
    146 H65       -12.5060    1.6740    1.6730 h1        1 MOL      0.079850
    147 H66       -13.0530    0.0220    1.8050 h1        1 MOL      0.079850
    148 N13       -10.1850    2.9110   -0.1850 n         1 MOL     -0.442749
    149 C50        -9.0190    3.8200   -0.2620 c3        1 MOL      0.299315
    150 C51        -9.2190    5.1260   -1.1190 c         1 MOL      0.369600
    151 O21        -9.6720    6.1510   -0.5110 o         1 MOL     -0.549515
    152 C52        -8.4220    4.1090    1.1060 c3        1 MOL     -0.158570
    153 C53        -7.9120    2.8190    1.8350 c3        1 MOL      0.015749
    154 C54        -7.8100    2.8680    3.3130 c         1 MOL      0.715654
    155 O22        -7.2760    3.8390    3.8550 o         1 MOL     -0.727503
    156 O23        -8.3110    1.9540    4.0080 o         1 MOL     -0.727503
    157 H67       -10.6150    2.6960    0.7000 hn        1 MOL      0.271655
    158 H68        -8.2670    3.2000   -0.7440 h1        1 MOL      0.075202
    159 H69        -9.2100    4.5390    1.7230 hc        1 MOL      0.038541
    160 H70        -7.5740    4.7980    1.0210 hc        1 MOL      0.038541
    161 H71        -7.0520    2.4340    1.2850 hc        1 MOL     -0.064672
    162 H72        -8.6120    1.9860    1.7520 hc        1 MOL     -0.064672
    163 N14        -8.8050    5.1970   -2.4520 n         1 MOL     -0.343913
    164 C55        -8.0340    4.2870   -3.2790 c3        1 MOL     -0.068176
    165 H73        -7.3250    3.7430   -2.6550 h1        1 MOL      0.061154
    166 H74        -8.7060    3.5810   -3.7670 h1        1 MOL      0.061154
    167 H75        -7.4900    4.8540   -4.0350 h1        1 MOL      0.061154
    168 H76        -8.7870    6.1420   -2.8120 hn        1 MOL      0.256450
    169 Ca1         7.4700    0.0620   -1.7320 Ca        1 MOL      1.701019
    170 O24         6.2930    2.2070   -0.5670 oh        1 MOL     -0.838189
    171 H77         5.5300    2.6110   -0.1600 ho        1 MOL      0.409820
    172 H78         6.6630    1.6500    0.1210 ho        1 MOL      0.409820
    173 O25         4.8520   -0.4960   -1.0990 oh        1 MOL     -0.838189
    174 H79         4.5980   -1.1140   -1.7770 ho        1 MOL      0.409820
    175 H80         4.2610    0.2460   -1.2050 ho        1 MOL      0.409820
    176 O26         5.9940    0.2790   -4.0300 oh        1 MOL     -0.838189
    177 H81         6.2180    0.0130   -4.9190 ho        1 MOL      0.409820
    178 H82         5.0900    0.5820   -4.0850 ho        1 MOL      0.409820
    179 O27         8.4420   -0.9780   -3.9560 oh        1 MOL     -0.838189
    180 H83         8.7880   -1.8650   -4.0070 ho        1 MOL      0.409820
    181 H84         8.0850   -0.8080   -4.8220 ho        1 MOL      0.409820
@<TRIPOS>BOND
     1    1    2 1   
     2    1    4 1   
     3    1    5 1   
     4    1    6 1   
     5    2    3 2   
     6    2    7 1   
     7    7    8 1   
     8    7   15 1   
     9    8    9 1   
    10    8   11 1   
    11    8   16 1   
    12    9   10 2   
    13    9   19 1   
    14   11   12 1   
    15   11   17 1   
    16   11   18 1   
    17   12   13 1   
    18   12   14 1   
    19   19   20 1   
    20   19   24 1   
    21   20   21 1   
    22   20   23 1   
    23   20   25 1   
    24   21   22 2   
    25   21   29 1   
    26   23   26 1   
    27   23   27 1   
    28   23   28 1   
    29   29   30 1   
    30   29   37 1   
    31   30   31 1   
    32   30   33 1   
    33   30   38 1   
    34   31   32 2   
    35   31   41 1   
    36   33   34 1   
    37   33   39 1   
    38   33   40 1   
    39   34   35 1   
    40   34   36 1   
    41   41   42 1   
    42   41   45 1   
    43   42   43 1   
    44   42   46 1   
    45   42   47 1   
    46   43   44 2   
    47   43   48 1   
    48   48   49 1   
    49   48   56 1   
    50   49   50 1   
    51   49   52 1   
    52   49   57 1   
    53   50   51 2   
    54   50   62 1   
    55   52   53 1   
    56   52   58 1   
    57   52   59 1   
    58   53   54 1   
    59   53   55 2   
    60   54   60 1   
    61   54   61 1   
    62   62   63 1   
    63   62   66 1   
    64   63   64 1   
    65   63   67 1   
    66   63   68 1   
    67   64   65 2   
    68   64   69 1   
    69   69   70 1   
    70   69   76 1   
    71   70   71 1   
    72   70   73 1   
    73   70   77 1   
    74   71   72 2   
    75   71   83 1   
    76   73   74 1   
    77   73   75 1   
    78   73   78 1   
    79   74   80 1   
    80   74   81 1   
    81   74   82 1   
    82   75   79 1   
    83   83   84 1   
    84   83   91 1   
    85   84   85 1   
    86   84   87 1   
    87   84   92 1   
    88   85   86 2   
    89   85  102 1   
    90   87   88 1   
    91   87   89 1   
    92   87   93 1   
    93   88   90 1   
    94   88   94 1   
    95   88   95 1   
    96   89   96 1   
    97   89   97 1   
    98   89   98 1   
    99   90   99 1   
   100   90  100 1   
   101   90  101 1   
   102  102  103 1   
   103  102  110 1   
   104  103  104 1   
   105  103  106 1   
   106  103  111 1   
   107  104  105 2   
   108  104  114 1   
   109  106  107 1   
   110  106  112 1   
   111  106  113 1   
   112  107  108 1   
   113  107  109 1   
   114  114  115 1   
   115  114  125 1   
   116  115  116 1   
   117  115  118 1   
   118  115  126 1   
   119  116  117 2   
   120  116  134 1   
   121  118  119 1   
   122  118  127 1   
   123  118  128 1   
   124  119  120 ar  
   125  119  121 ar  
   126  120  122 ar  
   127  120  129 1   
   128  121  123 ar  
   129  121  130 1   
   130  122  124 ar  
   131  122  131 1   
   132  123  124 ar  
   133  123  132 1   
   134  124  133 1   
   135  134  135 1   
   136  134  140 1   
   137  135  136 1   
   138  135  138 1   
   139  135  141 1   
   140  136  137 2   
   141  136  148 1   
   142  138  139 1   
   143  138  142 1   
   144  138  143 1   
   145  139  140 1   
   146  139  144 1   
   147  139  145 1   
   148  140  146 1   
   149  140  147 1   
   150  148  149 1   
   151  148  157 1   
   152  149  150 1   
   153  149  152 1   
   154  149  158 1   
   155  150  151 2   
   156  150  163 1   
   157  152  153 1   
   158  152  159 1   
   159  152  160 1   
   160  153  154 1   
   161  153  161 1   
   162  153  162 1   
   163  154  155 1   
   164  154  156 1   
   165  163  164 1   
   166  163  168 1   
   167  164  165 1   
   168  164  166 1   
   169  164  167 1   
   170  170  171 1   
   171  170  172 1   
   172  173  174 1   
   173  173  175 1   
   174  176  177 1   
   175  176  178 1   
   176  179  180 1   
   177  179  181 1   
@<TRIPOS>SUBSTRUCTURE
     1 MOL         1 TEMP              0 ****  ****    0 ROOT
