@<TRIPOS>MOLECULE
MOL
  192   187     1     0     0
SMALL
resp


@<TRIPOS>ATOM
      1 C1         -5.4830   -4.7550   -3.0620 c3        1 MOL     -0.363816
      2 C2         -6.0450   -3.7420   -1.9910 c         1 MOL      0.772863
      3 O1         -5.3170   -3.4120   -1.0500 o         1 MOL     -0.687849
      4 H1         -5.9400   -4.5490   -4.0310 hc        1 MOL      0.092134
      5 H2         -4.4020   -4.6400   -3.1400 hc        1 MOL      0.092134
      6 H3         -5.7210   -5.7750   -2.7590 hc        1 MOL      0.092134
      7 N1         -7.2410   -3.2500   -2.1320 n         1 MOL     -0.692831
      8 C3         -7.5840   -1.9810   -1.4720 c3        1 MOL      0.091421
      9 C4         -6.4570   -0.8710   -1.5130 c         1 MOL      0.359818
     10 O2         -5.8890   -0.5470   -0.4750 o         1 MOL     -0.372537
     11 C5         -8.3360   -2.1380   -0.1050 c3        1 MOL     -0.010775
     12 C6         -7.7290   -3.3140    0.6630 c         1 MOL      0.776023
     13 O3         -6.8850   -3.1120    1.5670 o         1 MOL     -0.745869
     14 O4         -8.3970   -4.4050    0.7020 o         1 MOL     -0.745869
     15 H4         -7.7730   -3.6030   -2.9140 hn        1 MOL      0.366726
     16 H5         -8.2710   -1.5370   -2.1920 h1        1 MOL      0.045123
     17 H6         -9.3870   -2.3880   -0.2370 hc        1 MOL      0.003627
     18 H7         -8.3250   -1.1780    0.4250 hc        1 MOL      0.003627
     19 N2         -6.0810   -0.3640   -2.7190 n         1 MOL     -0.433868
     20 C7         -5.0800    0.7670   -2.9090 c3        1 MOL      0.074455
     21 C8         -5.4900    2.1480   -2.4210 c         1 MOL      0.367392
     22 O5         -5.6240    3.0750   -3.2220 o         1 MOL     -0.516618
     23 C9         -3.6380    0.3980   -2.5990 c3        1 MOL      0.133403
     24 C10        -2.5580    1.4310   -2.9560 c3        1 MOL     -0.055580
     25 C11        -3.2610   -0.9830   -3.1690 c3        1 MOL     -0.117982
     26 C12        -2.5840    1.8470   -4.4790 c3        1 MOL     -0.253915
     27 H8         -6.6150   -0.6330   -3.5280 hn        1 MOL      0.296230
     28 H9         -5.0380    0.8850   -3.9880 h1        1 MOL      0.042420
     29 H10        -3.5720    0.3260   -1.5150 hc        1 MOL     -0.167828
     30 H11        -1.5880    1.0020   -2.7040 hc        1 MOL      0.106944
     31 H12        -2.6910    2.3470   -2.3740 hc        1 MOL      0.106944
     32 H13        -3.2720   -1.1040   -4.2480 hc        1 MOL      0.020167
     33 H14        -2.2670   -1.1930   -2.7640 hc        1 MOL      0.020167
     34 H15        -3.9570   -1.7290   -2.7760 hc        1 MOL      0.020167
     35 H16        -2.8370    1.0420   -5.1640 hc        1 MOL      0.049823
     36 H17        -3.3670    2.5890   -4.6430 hc        1 MOL      0.049823
     37 H18        -1.5850    2.1940   -4.7620 hc        1 MOL      0.049823
     38 N3         -5.8230    2.3100   -1.1030 n         1 MOL     -0.059729
     39 C13        -6.3070    3.5730   -0.5460 c3        1 MOL     -0.049699
     40 C14        -5.3330    4.8180   -0.5220 c         1 MOL      0.555090
     41 O6         -5.7290    5.8420   -1.0920 o         1 MOL     -0.588030
     42 C15        -7.0230    3.3760    0.7800 c3        1 MOL     -0.183940
     43 C16        -8.0110    2.1900    0.7590 c         1 MOL      0.767785
     44 O7         -8.8670    2.2310   -0.1310 o         1 MOL     -0.729165
     45 O8         -7.9830    1.2990    1.6330 o         1 MOL     -0.729165
     46 H19        -5.7870    1.4780   -0.5290 hn        1 MOL      0.138330
     47 H20        -7.1350    3.8700   -1.1980 h1        1 MOL      0.054121
     48 H21        -7.5560    4.2740    1.0780 hc        1 MOL      0.057792
     49 H22        -6.2910    3.0490    1.5060 hc        1 MOL      0.057792
     50 N4         -4.1280    4.8220   -0.0130 n         1 MOL     -0.409062
     51 C17        -3.3090    3.6960    0.4270 c3        1 MOL      0.030307
     52 C18        -2.2370    4.1810    1.3610 c         1 MOL      0.687727
     53 O9         -1.7630    5.3180    1.3720 o         1 MOL     -0.591961
     54 H23        -3.6590    5.6980   -0.1690 hn        1 MOL      0.254039
     55 H24        -2.7400    3.2240   -0.3740 h1        1 MOL      0.027151
     56 H25        -3.9980    3.0420    0.9660 h1        1 MOL      0.027151
     57 N5         -1.8430    3.3660    2.3920 n         1 MOL     -0.434066
     58 C19        -2.3500    2.0450    2.7090 c3        1 MOL      0.036896
     59 C20        -2.3600    1.0290    1.5090 c         1 MOL      0.875412
     60 O10        -3.2980    0.2810    1.3210 o         1 MOL     -0.788148
     61 C21        -3.6700    2.1490    3.4870 c3        1 MOL     -0.454814
     62 C22        -3.6520    3.1870    4.5820 c         1 MOL      0.810383
     63 O11        -4.3900    4.1780    4.4990 o         1 MOL     -0.741793
     64 O12        -2.9260    2.9400    5.6770 o         1 MOL     -0.741793
     65 H26        -1.1840    3.7600    3.0570 hn        1 MOL      0.260326
     66 H27        -1.5810    1.7170    3.4150 h1        1 MOL      0.040730
     67 H28        -3.9390    1.1550    3.8650 hc        1 MOL      0.109884
     68 H29        -4.4640    2.3310    2.7640 hc        1 MOL      0.109884
     69 N6         -1.2750    0.8180    0.7800 n         1 MOL     -0.677769
     70 C23         0.1080    1.3980    0.8420 c3        1 MOL     -0.129713
     71 C24         0.4000    2.6480    0.0540 c         1 MOL      0.303767
     72 O13        -0.2250    2.8640   -1.0040 o         1 MOL     -0.437435
     73 H30        -1.4050    0.2290   -0.0290 hn        1 MOL      0.498429
     74 H31         0.7750    0.6500    0.4210 h1        1 MOL      0.102237
     75 H32         0.3060    1.4300    1.9150 h1        1 MOL      0.102237
     76 N7          1.4450    3.3510    0.4190 n         1 MOL     -0.351541
     77 C25         2.0140    4.4490   -0.4040 c3        1 MOL     -0.116375
     78 C26         2.4490    4.1510   -1.8310 c         1 MOL      0.582270
     79 O14         2.3060    5.0600   -2.6070 o         1 MOL     -0.513169
     80 C27         3.1460    5.1340    0.3560 c3        1 MOL      0.045693
     81 C28         2.7190    5.6460    1.7460 c3        1 MOL     -0.182987
     82 C29         3.8520    6.4160    2.4660 c         1 MOL      0.643561
     83 N8          3.5360    6.9780    3.6410 n         1 MOL     -0.811641
     84 O15         4.9490    6.5510    2.0060 o         1 MOL     -0.536063
     85 H33         2.0240    3.0400    1.1870 hn        1 MOL      0.283648
     86 H34         1.1540    5.1190   -0.4200 h1        1 MOL      0.140644
     87 H35         3.6340    5.9280   -0.2170 hc        1 MOL      0.025496
     88 H36         3.9120    4.3550    0.4440 hc        1 MOL      0.025496
     89 H37         2.2660    4.8640    2.3520 hc        1 MOL      0.069094
     90 H38         1.8930    6.3600    1.7000 hc        1 MOL      0.069094
     91 H39         2.5610    6.9650    3.8830 hn        1 MOL      0.362969
     92 H40         4.1490    7.6850    4.0320 hn        1 MOL      0.362969
     93 N9          3.0010    2.9210   -2.1370 n         1 MOL     -0.445853
     94 C30         3.5130    2.5280   -3.4670 c3        1 MOL     -0.040226
     95 C31         5.0080    2.1240   -3.4780 c         1 MOL      0.484542
     96 O16         5.7310    2.2370   -4.4970 o         1 MOL     -0.568062
     97 C32         2.6480    1.4240   -4.1960 c3        1 MOL      0.077443
     98 C33         1.4540    2.0270   -4.9190 c3        1 MOL     -0.144506
     99 C34         2.0690    0.2700   -3.2790 c3        1 MOL     -0.144506
    100 H41         3.0680    2.2400   -1.3950 hn        1 MOL      0.348557
    101 H42         3.5890    3.4400   -4.0740 h1        1 MOL      0.111974
    102 H43         3.1920    0.9580   -5.0180 hc        1 MOL      0.042051
    103 H44         0.8410    2.5400   -4.1680 hc        1 MOL      0.036874
    104 H45         1.8540    2.6920   -5.6720 hc        1 MOL      0.036874
    105 H46         0.8910    1.2280   -5.3970 hc        1 MOL      0.036874
    106 H47         1.2800    0.6670   -2.6410 hc        1 MOL      0.036874
    107 H48         1.6720   -0.5960   -3.7960 hc        1 MOL      0.036874
    108 H49         2.8850   -0.1450   -2.6900 hc        1 MOL      0.036874
    109 N10         5.3930    1.4620   -2.4520 n         1 MOL     -0.279231
    110 C35         6.6450    0.7370   -2.3260 c3        1 MOL      0.404439
    111 C36         6.6270   -0.5690   -1.5830 c         1 MOL      0.299570
    112 O17         7.4120   -1.5280   -1.9260 o         1 MOL     -0.517013
    113 C37         7.6930    1.7080   -1.7860 c3        1 MOL     -0.753734
    114 C38         7.3150    2.4100   -0.4480 c         1 MOL      0.708855
    115 N11         8.0820    3.3700   -0.0800 n         1 MOL     -0.750024
    116 O18         6.3630    2.0750    0.2390 o         1 MOL     -0.559721
    117 H50         4.7590    1.2150   -1.7000 hn        1 MOL      0.060528
    118 H51         6.9840    0.4000   -3.3030 h1        1 MOL      0.024627
    119 H52         7.8650    2.5060   -2.5090 hc        1 MOL      0.228795
    120 H53         8.5320    1.0560   -1.5450 hc        1 MOL      0.228795
    121 H54         8.8710    3.4530   -0.7090 hn        1 MOL      0.367805
    122 H55         7.9360    3.8950    0.7660 hn        1 MOL      0.367805
    123 N12         5.8140   -0.7050   -0.5470 n         1 MOL     -0.375363
    124 C39         5.9480   -1.7520    0.5260 c3        1 MOL      0.282240
    125 C40         4.6280   -2.5110    0.7010 c         1 MOL      0.464350
    126 O19         3.5880   -1.9580    0.2920 o         1 MOL     -0.553850
    127 C41         6.7120   -1.2730    1.7390 c3        1 MOL      0.018277
    128 C42         8.1240   -0.8470    1.4280 ca        1 MOL     -0.031547
    129 C43         8.6100    0.4520    1.7360 ca        1 MOL     -0.094682
    130 C44         9.0110   -1.7950    0.7590 ca        1 MOL     -0.094682
    131 C45         9.9150    0.8130    1.3590 ca        1 MOL     -0.336953
    132 C46        10.3370   -1.3420    0.5170 ca        1 MOL     -0.336953
    133 C47        10.7390   -0.0240    0.7100 ca        1 MOL      0.427465
    134 O20        12.0000    0.2860    0.3150 oh        1 MOL     -0.543871
    135 H56         5.1920    0.0590   -0.2970 hn        1 MOL      0.313648
    136 H57         6.6330   -2.5160    0.1450 h1        1 MOL      0.021453
    137 H58         6.6750   -2.0030    2.5420 hc        1 MOL      0.006505
    138 H59         6.0840   -0.4200    2.0210 hc        1 MOL      0.006505
    139 H60         8.0530    1.2540    2.2070 ha        1 MOL      0.149809
    140 H61         8.7820   -2.7980    0.4610 ha        1 MOL      0.149809
    141 H62        10.2750    1.8000    1.6230 ha        1 MOL      0.142271
    142 H63        10.9680   -2.0080   -0.0500 ha        1 MOL      0.142271
    143 H64        12.4230   -0.5760    0.3170 ho        1 MOL      0.369289
    144 N13         4.6230   -3.7480    1.1760 n         1 MOL     -0.623721
    145 C48         3.4170   -4.5870    1.5180 c3        1 MOL      0.424096
    146 C49         2.4720   -4.9530    0.3830 c         1 MOL      0.391266
    147 O21         2.0090   -6.1050    0.3210 o         1 MOL     -0.545805
    148 C50         2.7040   -3.9760    2.7270 c3        1 MOL     -0.111857
    149 C51         3.5070   -3.5220    3.9390 c3        1 MOL     -0.066692
    150 C52         4.0320   -4.6770    4.7550 c         1 MOL      0.691595
    151 O22         5.2030   -5.0360    4.6120 o         1 MOL     -0.733580
    152 O23         3.2280   -5.2850    5.5340 o         1 MOL     -0.733580
    153 H65         5.4740   -4.1550    1.5470 hn        1 MOL      0.299402
    154 H66         3.7620   -5.5910    1.7980 h1        1 MOL     -0.005933
    155 H67         1.8960   -4.6400    3.0270 hc        1 MOL      0.040920
    156 H68         2.1860   -3.1010    2.3190 hc        1 MOL      0.040920
    157 H69         2.8980   -2.9420    4.6260 hc        1 MOL     -0.015316
    158 H70         4.2960   -2.8030    3.7080 hc        1 MOL     -0.015316
    159 N14         1.9860   -4.0800   -0.4510 n         1 MOL     -0.479833
    160 C53         0.9290   -4.4120   -1.4490 c3        1 MOL     -0.186200
    161 C54         1.4300   -5.3860   -2.5470 c         1 MOL      0.546715
    162 O24         0.7050   -5.6750   -3.5190 o         1 MOL     -0.570291
    163 C55         0.3430   -3.0290   -1.8920 c3        1 MOL     -0.102736
    164 C56        -0.2690   -2.1610   -0.7780 c3        1 MOL      0.356981
    165 C57        -1.4250   -2.8030   -0.0220 c         1 MOL      0.440652
    166 O25        -2.5290   -2.2760   -0.2680 o         1 MOL     -0.587877
    167 O26        -1.2270   -3.6930    0.8740 o         1 MOL     -0.587877
    168 H71         2.2800   -3.1170   -0.3550 hn        1 MOL      0.332532
    169 H72         0.0920   -4.9440   -1.0010 h1        1 MOL      0.184841
    170 H73        -0.3830   -3.1650   -2.6890 hc        1 MOL      0.040593
    171 H74         1.1430   -2.4310   -2.3200 hc        1 MOL      0.040593
    172 H75        -0.6940   -1.2550   -1.2090 hc        1 MOL     -0.133122
    173 H76         0.4460   -1.9580    0.0180 hc        1 MOL     -0.133122
    174 N15         2.6820   -5.7490   -2.4330 n         1 MOL     -0.194763
    175 C58         3.3880   -6.7050   -3.2600 c3        1 MOL     -0.222738
    176 H77         3.0980   -6.5690   -4.3020 h1        1 MOL      0.092373
    177 H78         4.4620   -6.5500   -3.1610 h1        1 MOL      0.092373
    178 H79         3.1360   -7.7170   -2.9430 h1        1 MOL      0.092373
    179 H80         3.2120   -5.3900   -1.6440 hn        1 MOL      0.228991
    180 Ca1        -4.4820   -2.0370    1.2600 Ca        1 MOL      1.779921
    181 O27        -2.0480   -2.1950    2.9340 oh        1 MOL     -0.799080
    182 O28        -6.4170   -0.7050    2.7700 oh        1 MOL     -0.799080
    183 H81        -1.5080   -1.6190    3.4660 ho        1 MOL      0.387625
    184 H82        -6.6640    0.2100    2.6370 ho        1 MOL      0.387625
    185 H83        -1.4370   -2.8670    2.6110 ho        1 MOL      0.387625
    186 H84        -7.2400   -1.1620    2.9080 ho        1 MOL      0.387625
    187 O29        -3.7740   -4.8420    1.4720 oh        1 MOL     -0.799080
    188 H85        -4.0750   -5.0580    0.5920 ho        1 MOL      0.387625
    189 H86        -2.8610   -5.1350    1.4840 ho        1 MOL      0.387625
    190 O30        -4.5440   -2.8440    3.9400 oh        1 MOL     -0.799080
    191 H87        -4.3390   -2.1900    4.6080 ho        1 MOL      0.387625
    192 H88        -3.9760   -3.5840    4.1360 ho        1 MOL      0.387625
@<TRIPOS>BOND
     1    1    2 1   
     2    1    4 1   
     3    1    5 1   
     4    1    6 1   
     5    2    3 2   
     6    2    7 1   
     7    7    8 1   
     8    7   15 1   
     9    8    9 1   
    10    8   11 1   
    11    8   16 1   
    12    9   10 2   
    13    9   19 1   
    14   11   12 1   
    15   11   17 1   
    16   11   18 1   
    17   12   13 1   
    18   12   14 1   
    19   19   20 1   
    20   19   27 1   
    21   20   21 1   
    22   20   23 1   
    23   20   28 1   
    24   21   22 2   
    25   21   38 1   
    26   23   24 1   
    27   23   25 1   
    28   23   29 1   
    29   24   26 1   
    30   24   30 1   
    31   24   31 1   
    32   25   32 1   
    33   25   33 1   
    34   25   34 1   
    35   26   35 1   
    36   26   36 1   
    37   26   37 1   
    38   38   39 1   
    39   38   46 1   
    40   39   40 1   
    41   39   42 1   
    42   39   47 1   
    43   40   41 2   
    44   40   50 1   
    45   42   43 1   
    46   42   48 1   
    47   42   49 1   
    48   43   44 1   
    49   43   45 1   
    50   50   51 1   
    51   50   54 1   
    52   51   52 1   
    53   51   55 1   
    54   51   56 1   
    55   52   53 2   
    56   52   57 1   
    57   57   58 1   
    58   57   65 1   
    59   58   59 1   
    60   58   61 1   
    61   58   66 1   
    62   59   60 2   
    63   59   69 1   
    64   61   62 1   
    65   61   67 1   
    66   61   68 1   
    67   62   63 1   
    68   62   64 1   
    69   69   70 1   
    70   69   73 1   
    71   70   71 1   
    72   70   74 1   
    73   70   75 1   
    74   71   72 2   
    75   71   76 1   
    76   76   77 1   
    77   76   85 1   
    78   77   78 1   
    79   77   80 1   
    80   77   86 1   
    81   78   79 2   
    82   78   93 1   
    83   80   81 1   
    84   80   87 1   
    85   80   88 1   
    86   81   82 1   
    87   81   89 1   
    88   81   90 1   
    89   82   83 1   
    90   82   84 2   
    91   83   91 1   
    92   83   92 1   
    93   93   94 1   
    94   93  100 1   
    95   94   95 1   
    96   94   97 1   
    97   94  101 1   
    98   95   96 2   
    99   95  109 1   
   100   97   98 1   
   101   97   99 1   
   102   97  102 1   
   103   98  103 1   
   104   98  104 1   
   105   98  105 1   
   106   99  106 1   
   107   99  107 1   
   108   99  108 1   
   109  109  110 1   
   110  109  117 1   
   111  110  111 1   
   112  110  113 1   
   113  110  118 1   
   114  111  112 2   
   115  111  123 1   
   116  113  114 1   
   117  113  119 1   
   118  113  120 1   
   119  114  115 1   
   120  114  116 2   
   121  115  121 1   
   122  115  122 1   
   123  123  124 1   
   124  123  135 1   
   125  124  125 1   
   126  124  127 1   
   127  124  136 1   
   128  125  126 2   
   129  125  144 1   
   130  127  128 1   
   131  127  137 1   
   132  127  138 1   
   133  128  129 ar  
   134  128  130 ar  
   135  129  131 ar  
   136  129  139 1   
   137  130  132 ar  
   138  130  140 1   
   139  131  133 ar  
   140  131  141 1   
   141  132  133 ar  
   142  132  142 1   
   143  133  134 1   
   144  134  143 1   
   145  144  145 1   
   146  144  153 1   
   147  145  146 1   
   148  145  148 1   
   149  145  154 1   
   150  146  147 2   
   151  146  159 1   
   152  148  149 1   
   153  148  155 1   
   154  148  156 1   
   155  149  150 1   
   156  149  157 1   
   157  149  158 1   
   158  150  151 1   
   159  150  152 1   
   160  159  160 1   
   161  159  168 1   
   162  160  161 1   
   163  160  163 1   
   164  160  169 1   
   165  161  162 2   
   166  161  174 1   
   167  163  164 1   
   168  163  170 1   
   169  163  171 1   
   170  164  165 1   
   171  164  172 1   
   172  164  173 1   
   173  165  166 1   
   174  165  167 1   
   175  174  175 1   
   176  174  179 1   
   177  175  176 1   
   178  175  177 1   
   179  175  178 1   
   180  181  183 1   
   181  181  185 1   
   182  182  184 1   
   183  182  186 1   
   184  187  188 1   
   185  187  189 1   
   186  190  191 1   
   187  190  192 1   
@<TRIPOS>SUBSTRUCTURE
     1 MOL         1 TEMP              0 ****  ****    0 ROOT
