@<TRIPOS>MOLECULE
MOL
  191   184     1     0     0
SMALL
resp


@<TRIPOS>ATOM
      1 C1         -6.0960    1.5880   -2.7550 c3        1 MOL     -0.363955
      2 C2         -7.1230    1.3680   -1.5550 c         1 MOL      0.706917
      3 O1         -6.7030    0.9870   -0.4690 o         1 MOL     -0.497133
      4 H1         -5.1880    1.0150   -2.5660 hc        1 MOL      0.083816
      5 H2         -6.5490    1.2530   -3.6880 hc        1 MOL      0.083816
      6 H3         -5.8480    2.6470   -2.8310 hc        1 MOL      0.083816
      7 N1         -8.4040    1.5050   -1.8460 n         1 MOL     -0.566786
      8 C3         -9.4430    1.0460   -0.9100 c3        1 MOL      0.047388
      9 C4         -9.2080   -0.3340   -0.2840 c         1 MOL      0.426395
     10 O2         -9.5860   -0.4550    0.8780 o         1 MOL     -0.499744
     11 C5         -9.7050    2.1470    0.1200 c3        1 MOL     -0.261765
     12 C6         -9.6160    3.5340   -0.5280 c         1 MOL      0.700016
     13 O3        -10.2480    3.8310   -1.5570 o         1 MOL     -0.653293
     14 O4         -8.9430    4.4140    0.0990 o         1 MOL     -0.653293
     15 H4         -8.6380    1.9610   -2.7190 hn        1 MOL      0.321844
     16 H5        -10.3170    1.0650   -1.5710 h1        1 MOL      0.053572
     17 H6         -9.0100    2.1920    0.9600 hc        1 MOL      0.101353
     18 H7        -10.7140    2.0290    0.5290 hc        1 MOL      0.101353
     19 N2         -8.6650   -1.3330   -1.0110 n         1 MOL     -0.209538
     20 C7         -8.4750   -2.7580   -0.7010 c3        1 MOL     -0.031494
     21 C8         -7.0240   -3.1090   -0.2960 c         1 MOL      0.539391
     22 O5         -6.8100   -4.2770   -0.0650 o         1 MOL     -0.542754
     23 C9         -9.2490   -3.7300   -1.7520 c3        1 MOL     -0.227921
     24 C10       -10.7620   -3.4620   -1.8300 c3        1 MOL      0.374287
     25 C11       -11.4880   -4.1840   -2.9410 c3        1 MOL     -0.033354
     26 C12       -12.9120   -3.8300   -2.9380 c3        1 MOL      0.074629
     27 N3        -13.7590   -4.6120   -3.8930 n4        1 MOL     -0.158504
     28 H8         -8.4280   -1.0230   -1.9390 hn        1 MOL      0.191246
     29 H9         -8.9570   -2.9270    0.2610 h1        1 MOL      0.117978
     30 H10        -9.1630   -4.7580   -1.4020 hc        1 MOL      0.063660
     31 H11        -8.8550   -3.6560   -2.7740 hc        1 MOL      0.063660
     32 H12       -10.8120   -2.3880   -1.9980 hc        1 MOL     -0.087953
     33 H13       -11.2780   -3.6880   -0.8990 hc        1 MOL     -0.087953
     34 H14       -11.3450   -5.2520   -2.8120 hc        1 MOL     -0.002953
     35 H15       -11.0000   -3.9250   -3.8800 hc        1 MOL     -0.002953
     36 H16       -13.0370   -2.7940   -3.2420 hx        1 MOL      0.050718
     37 H17       -13.2770   -3.9460   -1.9110 hx        1 MOL      0.050718
     38 H18       -14.7400   -4.3920   -3.9050 hn        1 MOL      0.220814
     39 H19       -13.4160   -4.5110   -4.8410 hn        1 MOL      0.220814
     40 H20       -13.6620   -5.5940   -3.6710 hn        1 MOL      0.220814
     41 N4         -6.1010   -2.0980   -0.1530 n         1 MOL     -0.344656
     42 C13        -4.7900   -2.2290    0.5130 c3        1 MOL     -0.016001
     43 C14        -4.8420   -1.8230    2.0500 c         1 MOL      0.583457
     44 O6         -5.5080   -0.8270    2.3150 o         1 MOL     -0.431540
     45 C15        -3.7360   -1.3480   -0.1750 c3        1 MOL     -0.106803
     46 C16        -2.3440   -1.7530    0.2860 c         1 MOL      0.675943
     47 O7         -1.6080   -2.5750   -0.2580 o         1 MOL     -0.685961
     48 O8         -1.8840   -1.1830    1.3140 o         1 MOL     -0.685961
     49 H21        -6.4260   -1.1750   -0.4070 hn        1 MOL      0.166444
     50 H22        -4.5480   -3.2900    0.4010 h1        1 MOL      0.039349
     51 H23        -3.9930   -0.3270    0.1260 hc        1 MOL      0.039997
     52 H24        -3.7700   -1.4880   -1.2610 hc        1 MOL      0.039997
     53 N5         -4.1210   -2.5540    2.9430 n         1 MOL     -0.467874
     54 C17        -4.1650   -2.3260    4.3850 c3        1 MOL     -0.099578
     55 C18        -3.5770   -0.9840    4.8300 c         1 MOL      0.444308
     56 O9         -4.1130   -0.3880    5.8060 o         1 MOL     -0.530917
     57 H25        -3.4760   -3.2160    2.5330 hn        1 MOL      0.304922
     58 H26        -3.4690   -2.9960    4.9010 h1        1 MOL      0.100993
     59 H27        -5.1890   -2.4810    4.7220 h1        1 MOL      0.100993
     60 N6         -2.5040   -0.5120    4.1790 n         1 MOL     -0.197904
     61 C19        -1.8340    0.7210    4.5940 c3        1 MOL      0.068800
     62 C20        -1.8710    1.7880    3.5310 c         1 MOL      0.502265
     63 O10        -1.8510    3.0050    3.8930 o         1 MOL     -0.554439
     64 C21        -0.4300    0.3080    5.0790 c3        1 MOL     -0.318479
     65 C22         0.5980    0.2980    4.0070 c         1 MOL      0.771555
     66 N7          1.5310    1.2160    4.0370 n         1 MOL     -0.827304
     67 O11         0.6990   -0.4680    3.0920 o         1 MOL     -0.648408
     68 H28        -2.2290   -0.9030    3.2840 hn        1 MOL      0.143556
     69 H29        -2.3880    1.2160    5.3930 h1        1 MOL      0.107882
     70 H30        -0.5270   -0.6990    5.4790 hc        1 MOL      0.090153
     71 H31        -0.0330    0.9700    5.8500 hc        1 MOL      0.090153
     72 H32         1.3870    1.9920    4.6620 hn        1 MOL      0.380529
     73 H33         2.0640    1.3350    3.1810 hn        1 MOL      0.380529
     74 N8         -1.9920    1.3280    2.2740 n         1 MOL     -0.326027
     75 C23        -1.9090    2.2240    1.1330 c3        1 MOL     -0.123637
     76 C24        -0.5390    2.7140    0.6570 c         1 MOL      0.781168
     77 O12         0.4190    2.7330    1.4080 o         1 MOL     -0.584251
     78 H34        -1.8400    0.3800    1.9750 hn        1 MOL      0.204551
     79 H35        -2.5240    3.1200    1.2640 h1        1 MOL      0.110539
     80 H36        -2.3840    1.6870    0.3050 h1        1 MOL      0.110539
     81 N9         -0.4070    3.3200   -0.5320 n         1 MOL     -0.750762
     82 C25         0.8330    3.8670   -1.0020 c3        1 MOL      0.265416
     83 C26         1.7530    2.8070   -1.6530 c         1 MOL      0.640799
     84 O13         1.2610    1.8090   -2.1030 o         1 MOL     -0.513799
     85 C27         0.6650    5.0320   -2.0510 c3        1 MOL      0.032958
     86 C28        -0.4240    6.0180   -1.7610 ca        1 MOL     -0.128554
     87 C29        -1.6500    6.0620   -2.4320 ca        1 MOL     -0.031884
     88 C30        -0.3370    6.8290   -0.5630 ca        1 MOL     -0.031884
     89 C31        -2.6390    6.9890   -2.1030 ca        1 MOL     -0.337524
     90 C32        -1.4100    7.6850   -0.2220 ca        1 MOL     -0.337524
     91 C33        -2.5870    7.7950   -1.0300 ca        1 MOL      0.428399
     92 O14        -3.6590    8.5480   -0.7030 oh        1 MOL     -0.474290
     93 H37        -1.2030    3.6110   -1.0860 hn        1 MOL      0.339493
     94 H38         1.4200    4.2850   -0.1950 h1        1 MOL     -0.006592
     95 H39         0.5350    4.6000   -3.0470 hc        1 MOL      0.001840
     96 H40         1.6380    5.5150   -2.0950 hc        1 MOL      0.001840
     97 H41        -1.8170    5.3380   -3.2160 ha        1 MOL      0.103618
     98 H42         0.5230    6.8460    0.0850 ha        1 MOL      0.103618
     99 H43        -3.6100    6.9110   -2.5660 ha        1 MOL      0.161613
    100 H44        -1.2960    8.2670    0.6730 ha        1 MOL      0.161613
    101 H45        -3.5180    9.1300    0.0480 ho        1 MOL      0.374326
    102 N10         3.0740    2.9760   -1.5780 n         1 MOL     -0.703466
    103 C34         4.1700    1.9580   -1.9170 c3        1 MOL      0.100223
    104 C35         5.0990    1.7420   -0.7060 c         1 MOL      0.316227
    105 O15         5.4980    0.6170   -0.4460 o         1 MOL     -0.421661
    106 C36         4.9530    2.4040   -3.1020 c3        1 MOL     -0.000220
    107 C37         4.1280    2.6620   -4.3770 c3        1 MOL     -0.023148
    108 C38         6.1080    1.4710   -3.4680 c3        1 MOL     -0.411462
    109 C39         3.2760    1.4610   -4.8210 c3        1 MOL     -0.159014
    110 H46         3.3640    3.9140   -1.3530 hn        1 MOL      0.331153
    111 H47         3.5670    1.0550   -2.0100 h1        1 MOL      0.152034
    112 H48         5.4420    3.3490   -2.8340 hc        1 MOL      0.015483
    113 H49         4.7650    2.8100   -5.2450 hc        1 MOL      0.033586
    114 H50         3.5080    3.5410   -4.1850 hc        1 MOL      0.033586
    115 H51         6.4390    1.6740   -4.4790 hc        1 MOL      0.124396
    116 H52         6.9660    1.5370   -2.8090 hc        1 MOL      0.124396
    117 H53         5.8270    0.4140   -3.3890 hc        1 MOL      0.124396
    118 H54         2.8020    1.7190   -5.7640 hc        1 MOL      0.054639
    119 H55         3.9370    0.5940   -4.9530 hc        1 MOL      0.054639
    120 H56         2.4710    1.3820   -4.0880 hc        1 MOL      0.054639
    121 N11         5.4710    2.8250    0.0200 n         1 MOL     -0.220692
    122 C40         6.1690    2.6280    1.2690 c3        1 MOL     -0.029243
    123 C41         7.6400    2.3050    1.1820 c         1 MOL      0.338343
    124 O16         8.2130    1.7050    2.1090 o         1 MOL     -0.485066
    125 C42         5.9790    3.8400    2.2420 c3        1 MOL      0.299386
    126 O17         4.7270    4.4020    2.1700 oh        1 MOL     -0.650347
    127 H57         5.0440    3.7200   -0.1740 hn        1 MOL      0.218834
    128 H58         5.6650    1.8560    1.8440 h1        1 MOL      0.118238
    129 H59         6.6800    4.6540    2.0610 h1        1 MOL      0.004233
    130 H60         6.0890    3.4670    3.2680 h1        1 MOL      0.004233
    131 H61         4.5780    5.1630    2.7260 ho        1 MOL      0.428659
    132 N12         8.3530    2.6850    0.0540 n         1 MOL     -0.326512
    133 C43         9.7160    2.2680   -0.3050 c3        1 MOL      0.238297
    134 C44         9.9650    0.7420   -0.1500 c         1 MOL      0.444837
    135 O18        11.0520    0.2820   -0.0060 o         1 MOL     -0.493569
    136 C45        10.6250    3.1390    0.5890 c3        1 MOL     -0.557764
    137 H62         7.8970    3.2110   -0.6910 hn        1 MOL      0.222740
    138 H63         9.7960    2.4720   -1.3660 h1        1 MOL      0.054119
    139 H64        10.4720    2.8680    1.6320 hc        1 MOL      0.162681
    140 H65        11.6050    3.0300    0.1160 hc        1 MOL      0.162681
    141 H66        10.2920    4.1760    0.5770 hc        1 MOL      0.162681
    142 N13         8.8980   -0.0910   -0.1860 n         1 MOL     -0.402514
    143 C46         8.9460   -1.4830    0.2090 c3        1 MOL      0.199401
    144 C47         7.9370   -2.2750   -0.6180 c         1 MOL      0.570985
    145 O19         7.1440   -1.8120   -1.4210 o         1 MOL     -0.455709
    146 C48         8.7450   -1.6350    1.6730 c3        1 MOL     -0.379144
    147 H67         7.9700    0.2510   -0.3900 hn        1 MOL      0.180653
    148 H68         9.8820   -1.8710   -0.1910 h1        1 MOL      0.032877
    149 H69         8.8670   -2.6840    1.9570 hc        1 MOL      0.115047
    150 H70         9.4620   -1.0200    2.2140 hc        1 MOL      0.115047
    151 H71         7.7310   -1.3930    1.9800 hc        1 MOL      0.115047
    152 N14         7.9860   -3.6230   -0.4280 n         1 MOL     -0.691677
    153 C49         7.3610   -4.6250   -1.2130 c3        1 MOL      0.026249
    154 C50         7.5930   -4.4590   -2.7760 c         1 MOL      0.457875
    155 O20         6.7130   -4.8310   -3.4970 o         1 MOL     -0.451397
    156 C51         5.9450   -4.8930   -0.7560 c3        1 MOL     -0.045846
    157 C52         5.7050   -6.0940    0.2040 c3        1 MOL     -0.439078
    158 C53         4.1870   -6.3710   -0.0100 c         1 MOL      0.722112
    159 O21         3.7230   -7.2710   -0.8070 o         1 MOL     -0.678117
    160 O22         3.4330   -5.6640    0.7210 o         1 MOL     -0.678117
    161 H72         8.5170   -3.8600    0.4070 hn        1 MOL      0.381592
    162 H73         7.9180   -5.5460   -1.0230 h1        1 MOL      0.068172
    163 H74         5.3160   -5.1170   -1.6190 hc        1 MOL      0.090859
    164 H75         5.4410   -3.9610   -0.5240 hc        1 MOL      0.090859
    165 H76         6.0250   -6.0080    1.2460 hc        1 MOL      0.113026
    166 H77         6.3060   -6.9180   -0.1730 hc        1 MOL      0.113026
    167 N15         8.7500   -3.8350   -3.2200 n         1 MOL     -0.331862
    168 C54         9.1120   -3.3440   -4.5320 c3        1 MOL     -0.111827
    169 H78         8.2870   -2.7600   -4.9410 h1        1 MOL      0.079988
    170 H79         9.9980   -2.7140   -4.4540 h1        1 MOL      0.079988
    171 H80         9.3210   -4.1870   -5.1910 h1        1 MOL      0.079988
    172 H81         9.3000   -3.4250   -2.4820 hn        1 MOL      0.238954
    173 Ca1         0.6450   -2.1920    1.0470 Ca        1 MOL      1.825018
    174 O23        -0.1500   -3.2170    3.3190 oh        1 MOL     -0.868049
    175 H82        -0.5640   -4.0610    3.1690 ho        1 MOL      0.414196
    176 H83         0.1800   -3.2660    4.2170 ho        1 MOL      0.414196
    177 O24         0.1540   -0.3540   -0.9990 oh        1 MOL     -0.868049
    178 H84         0.6350    0.4720   -1.0680 ho        1 MOL      0.414196
    179 H85         0.0100   -0.6340   -1.8920 ho        1 MOL      0.414196
    180 O25         2.0340   -3.1660   -0.9110 oh        1 MOL     -0.868049
    181 H86         2.8970   -2.9980   -1.2760 ho        1 MOL      0.414196
    182 H87         1.7640   -3.9970   -1.3020 ho        1 MOL      0.414196
    183 O26         0.5790   -4.9650    1.0780 oh        1 MOL     -0.868049
    184 H88        -0.0110   -5.7200    1.0260 ho        1 MOL      0.414196
    185 H89         1.4550   -5.3500    1.0350 ho        1 MOL      0.414196
    186 O27         2.6760   -0.4440    0.6710 oh        1 MOL     -0.868049
    187 H90         3.5670   -0.7620    0.8340 ho        1 MOL      0.414196
    188 H91         2.7030    0.4790    0.9290 ho        1 MOL      0.414196
    189 O28         2.9770   -3.3350    2.0010 oh        1 MOL     -0.868049
    190 H92         3.2810   -4.0430    1.4430 ho        1 MOL      0.414196
    191 H93         3.7210   -3.1300    2.5590 ho        1 MOL      0.414196
@<TRIPOS>BOND
     1    1    2 1   
     2    1    4 1   
     3    1    5 1   
     4    1    6 1   
     5    2    3 2   
     6    2    7 1   
     7    7    8 1   
     8    7   15 1   
     9    8    9 1   
    10    8   11 1   
    11    8   16 1   
    12    9   10 2   
    13    9   19 1   
    14   11   12 1   
    15   11   17 1   
    16   11   18 1   
    17   12   13 1   
    18   12   14 1   
    19   19   20 1   
    20   19   28 1   
    21   20   21 1   
    22   20   23 1   
    23   20   29 1   
    24   21   22 2   
    25   21   41 1   
    26   23   24 1   
    27   23   30 1   
    28   23   31 1   
    29   24   25 1   
    30   24   32 1   
    31   24   33 1   
    32   25   26 1   
    33   25   34 1   
    34   25   35 1   
    35   26   27 1   
    36   26   36 1   
    37   26   37 1   
    38   27   38 1   
    39   27   39 1   
    40   27   40 1   
    41   41   42 1   
    42   41   49 1   
    43   42   43 1   
    44   42   45 1   
    45   42   50 1   
    46   43   44 2   
    47   43   53 1   
    48   45   46 1   
    49   45   51 1   
    50   45   52 1   
    51   46   47 1   
    52   46   48 1   
    53   53   54 1   
    54   53   57 1   
    55   54   55 1   
    56   54   58 1   
    57   54   59 1   
    58   55   56 2   
    59   55   60 1   
    60   60   61 1   
    61   60   68 1   
    62   61   62 1   
    63   61   64 1   
    64   61   69 1   
    65   62   63 2   
    66   62   74 1   
    67   64   65 1   
    68   64   70 1   
    69   64   71 1   
    70   65   66 1   
    71   65   67 2   
    72   66   72 1   
    73   66   73 1   
    74   74   75 1   
    75   74   78 1   
    76   75   76 1   
    77   75   79 1   
    78   75   80 1   
    79   76   77 2   
    80   76   81 1   
    81   81   82 1   
    82   81   93 1   
    83   82   83 1   
    84   82   85 1   
    85   82   94 1   
    86   83   84 2   
    87   83  102 1   
    88   85   86 1   
    89   85   95 1   
    90   85   96 1   
    91   86   87 ar  
    92   86   88 ar  
    93   87   89 ar  
    94   87   97 1   
    95   88   90 ar  
    96   88   98 1   
    97   89   91 ar  
    98   89   99 1   
    99   90   91 ar  
   100   90  100 1   
   101   91   92 1   
   102   92  101 1   
   103  102  103 1   
   104  102  110 1   
   105  103  104 1   
   106  103  106 1   
   107  103  111 1   
   108  104  105 2   
   109  104  121 1   
   110  106  107 1   
   111  106  108 1   
   112  106  112 1   
   113  107  109 1   
   114  107  113 1   
   115  107  114 1   
   116  108  115 1   
   117  108  116 1   
   118  108  117 1   
   119  109  118 1   
   120  109  119 1   
   121  109  120 1   
   122  121  122 1   
   123  121  127 1   
   124  122  123 1   
   125  122  125 1   
   126  122  128 1   
   127  123  124 2   
   128  123  132 1   
   129  125  126 1   
   130  125  129 1   
   131  125  130 1   
   132  126  131 1   
   133  132  133 1   
   134  132  137 1   
   135  133  134 1   
   136  133  136 1   
   137  133  138 1   
   138  134  135 2   
   139  134  142 1   
   140  136  139 1   
   141  136  140 1   
   142  136  141 1   
   143  142  143 1   
   144  142  147 1   
   145  143  144 1   
   146  143  146 1   
   147  143  148 1   
   148  144  145 2   
   149  144  152 1   
   150  146  149 1   
   151  146  150 1   
   152  146  151 1   
   153  152  153 1   
   154  152  161 1   
   155  153  154 1   
   156  153  156 1   
   157  153  162 1   
   158  154  155 2   
   159  154  167 1   
   160  156  157 1   
   161  156  163 1   
   162  156  164 1   
   163  157  158 1   
   164  157  165 1   
   165  157  166 1   
   166  158  159 1   
   167  158  160 1   
   168  167  168 1   
   169  167  172 1   
   170  168  169 1   
   171  168  170 1   
   172  168  171 1   
   173  174  175 1   
   174  174  176 1   
   175  177  178 1   
   176  177  179 1   
   177  180  181 1   
   178  180  182 1   
   179  183  184 1   
   180  183  185 1   
   181  186  187 1   
   182  186  188 1   
   183  189  190 1   
   184  189  191 1   
@<TRIPOS>SUBSTRUCTURE
     1 MOL         1 TEMP              0 ****  ****    0 ROOT
