@<TRIPOS>MOLECULE
MOL
  182   178     1     0     0
SMALL
resp


@<TRIPOS>ATOM
      1 C1          0.8950   -4.4910    5.8800 c3        1 MOL     -0.447363
      2 C2          0.9910   -4.0700    4.3830 c         1 MOL      0.700122
      3 O1          0.0890   -4.0580    3.5670 o         1 MOL     -0.572971
      4 H1          1.8980   -4.5710    6.3000 hc        1 MOL      0.133403
      5 H2          0.3290   -3.7410    6.4330 hc        1 MOL      0.133403
      6 H3          0.3920   -5.4550    5.9560 hc        1 MOL      0.133403
      7 N1          2.1740   -3.6960    3.8640 n         1 MOL     -0.532270
      8 C3          2.4390   -3.2730    2.5090 c3        1 MOL      0.203953
      9 C4          2.5820   -4.4240    1.5330 c         1 MOL      0.538153
     10 O2          3.0060   -5.5180    1.9600 o         1 MOL     -0.562581
     11 C5          3.6750   -2.3420    2.6220 c3        1 MOL     -0.345500
     12 C6          3.8670   -1.4480    1.4150 c         1 MOL      0.853837
     13 O3          4.3770   -0.3200    1.5390 o         1 MOL     -0.732481
     14 O4          3.3070   -1.7090    0.3420 o         1 MOL     -0.732481
     15 H4          2.8910   -3.5870    4.5660 hn        1 MOL      0.292238
     16 H5          1.5510   -2.7250    2.1880 h1        1 MOL     -0.138114
     17 H6          4.6320   -2.8650    2.7580 hc        1 MOL      0.105833
     18 H7          3.4310   -1.7010    3.4700 hc        1 MOL      0.105833
     19 N2          2.3170   -4.1740    0.2490 n         1 MOL     -0.165060
     20 C7          2.5590   -5.1910   -0.8080 c3        1 MOL     -0.035474
     21 C8          3.7570   -4.8280   -1.6860 c         1 MOL      0.319033
     22 O5          4.3870   -5.7930   -2.2420 o         1 MOL     -0.531624
     23 C9          1.3140   -5.3440   -1.6940 c3        1 MOL      0.002824
     24 C10         0.0940   -6.0580   -0.9880 c3        1 MOL     -0.094520
     25 C11        -1.0390   -6.1600   -2.0390 c3        1 MOL     -0.030368
     26 C12        -2.1440   -7.0190   -1.4360 c3        1 MOL      0.088431
     27 N3         -3.2740   -7.0740   -2.3820 n4        1 MOL     -0.259804
     28 H8          2.1490   -3.2610   -0.1520 hn        1 MOL      0.220281
     29 H9          2.7960   -6.1020   -0.2510 h1        1 MOL      0.096773
     30 H10         1.6000   -5.8780   -2.6030 hc        1 MOL      0.027747
     31 H11         1.1200   -4.3090   -1.9490 hc        1 MOL      0.027747
     32 H12        -0.1150   -5.5350   -0.0530 hc        1 MOL      0.050500
     33 H13         0.3860   -7.0590   -0.6570 hc        1 MOL      0.050500
     34 H14        -0.6500   -6.5670   -2.9770 hc        1 MOL      0.030383
     35 H15        -1.4500   -5.1930   -2.3410 hc        1 MOL      0.030383
     36 H16        -2.4530   -6.6460   -0.4560 hx        1 MOL      0.066657
     37 H17        -1.7940   -8.0340   -1.2340 hx        1 MOL      0.066657
     38 H18        -3.7830   -6.2070   -2.4760 hn        1 MOL      0.255045
     39 H19        -2.9980   -7.3250   -3.3140 hn        1 MOL      0.255045
     40 H20        -3.9610   -7.7310   -2.0420 hn        1 MOL      0.255045
     41 N4          4.0840   -3.5800   -1.8010 n         1 MOL      0.056379
     42 C13         5.2930   -3.2120   -2.5340 c3        1 MOL      0.070176
     43 C14         6.5400   -2.9660   -1.6650 c         1 MOL      0.392406
     44 O6          7.6910   -3.0930   -1.9710 o         1 MOL     -0.505586
     45 C15         5.1270   -2.0200   -3.5330 c3        1 MOL     -0.292277
     46 C16         4.3240   -0.9420   -2.9000 c         1 MOL      0.756672
     47 O7          4.8320   -0.3310   -1.9240 o         1 MOL     -0.760727
     48 O8          3.1120   -0.8620   -3.0960 o         1 MOL     -0.760727
     49 H21         3.5900   -2.8420   -1.3320 hn        1 MOL     -0.036403
     50 H22         5.4630   -4.0290   -3.2390 h1        1 MOL      0.079913
     51 H23         4.5080   -2.3940   -4.3490 hc        1 MOL      0.079656
     52 H24         6.0310   -1.4800   -3.8100 hc        1 MOL      0.079656
     53 N5          6.2460   -2.5070   -0.4370 n         1 MOL     -0.122131
     54 C17         7.2610   -2.0980    0.5270 c3        1 MOL     -0.274093
     55 C18         7.5220   -0.6450    0.7210 c         1 MOL      0.508645
     56 O9          8.2310   -0.2770    1.6550 o         1 MOL     -0.565882
     57 H25         5.2930   -2.2580   -0.2180 hn        1 MOL      0.007653
     58 H26         8.1970   -2.4270    0.0810 h1        1 MOL      0.152865
     59 H27         7.0840   -2.5540    1.4940 h1        1 MOL      0.152865
     60 N6          6.9940    0.2260   -0.1580 n         1 MOL     -0.109067
     61 C19         7.3040    1.6660   -0.3040 c3        1 MOL     -0.088882
     62 C20         6.1330    2.5920    0.0430 c         1 MOL      0.488658
     63 O10         4.9790    2.2350   -0.2090 o         1 MOL     -0.482211
     64 C21         7.8510    1.8930   -1.7060 c3        1 MOL     -0.074072
     65 C22         8.6850    0.8070   -2.2920 c         1 MOL      0.700533
     66 N7          8.2540    0.0990   -3.2580 n         1 MOL     -0.834373
     67 O11         9.8140    0.6330   -1.9590 o         1 MOL     -0.569043
     68 H28         6.3100   -0.1450   -0.8090 hn        1 MOL      0.234340
     69 H29         8.1360    1.7970    0.3900 h1        1 MOL      0.072998
     70 H30         8.5460    2.7270   -1.6240 hc        1 MOL     -0.012194
     71 H31         7.0810    2.0710   -2.4600 hc        1 MOL     -0.012194
     72 H32         7.3060    0.1190   -3.5910 hn        1 MOL      0.390859
     73 H33         8.9600   -0.5350   -3.6170 hn        1 MOL      0.390859
     74 N8          6.4650    3.7520    0.5400 n         1 MOL     -0.340558
     75 C23         5.5940    4.9170    0.5040 c3        1 MOL     -0.121585
     76 C24         4.2620    4.7700    1.3130 c         1 MOL      0.606341
     77 O12         4.2520    4.5010    2.5310 o         1 MOL     -0.498735
     78 H34         7.4630    3.7820    0.6870 hn        1 MOL      0.316656
     79 H35         5.3220    5.0270   -0.5430 h1        1 MOL      0.087260
     80 H36         6.2960    5.7390    0.6560 h1        1 MOL      0.087260
     81 N9          3.1270    4.9740    0.6730 n         1 MOL     -0.562697
     82 C25         1.7960    4.7460    1.2760 c3        1 MOL      0.204287
     83 C26         1.5300    3.2450    1.5030 c         1 MOL      0.326027
     84 O13         2.2730    2.3720    1.0410 o         1 MOL     -0.420899
     85 C27         0.7220    5.2250    0.2500 c3        1 MOL     -0.332213
     86 C28         0.7800    6.6350   -0.3100 ca        1 MOL      0.181428
     87 C29         0.6880    7.7190    0.6240 ca        1 MOL     -0.199364
     88 C30         0.7840    6.8520   -1.6780 ca        1 MOL     -0.199364
     89 C31         0.6770    9.0560    0.1330 ca        1 MOL     -0.290908
     90 C32         0.7460    8.1280   -2.2060 ca        1 MOL     -0.290908
     91 C33         0.6630    9.2520   -1.2780 ca        1 MOL      0.369570
     92 O14         0.6000   10.5400   -1.6960 oh        1 MOL     -0.467146
     93 H37         3.0630    5.3270   -0.2730 hn        1 MOL      0.295868
     94 H38         1.6590    5.3820    2.1500 h1        1 MOL      0.073064
     95 H39        -0.2230    5.1040    0.7670 hc        1 MOL      0.096815
     96 H40         0.8310    4.5620   -0.6110 hc        1 MOL      0.096815
     97 H41         0.5770    7.4850    1.6690 ha        1 MOL      0.158603
     98 H42         0.7330    6.0650   -2.4090 ha        1 MOL      0.158603
     99 H43         0.6270    9.8380    0.8700 ha        1 MOL      0.178674
    100 H44         0.7970    8.2780   -3.2760 ha        1 MOL      0.178674
    101 H45         0.6150   11.0690   -0.8980 ho        1 MOL      0.360622
    102 N10         0.4150    2.9070    2.1920 n         1 MOL     -0.540693
    103 C34         0.1090    1.5120    2.6050 c3        1 MOL      0.014446
    104 C35        -0.1750    0.4900    1.4990 c         1 MOL      0.459600
    105 O15         0.7540    0.1340    0.7610 o         1 MOL     -0.334278
    106 C36         1.0650    0.9010    3.6550 c3        1 MOL      0.320220
    107 C37         0.4450   -0.2870    4.4400 c3        1 MOL     -0.010796
    108 C38         1.7160    1.9550    4.5820 c3        1 MOL     -0.224271
    109 C39        -0.7630    0.1260    5.3100 c3        1 MOL     -0.409340
    110 H46        -0.1830    3.6220    2.5910 hn        1 MOL      0.345600
    111 H47        -0.8480    1.5700    3.1230 h1        1 MOL      0.034579
    112 H48         1.9600    0.5110    3.1750 hc        1 MOL     -0.027551
    113 H49         1.2860   -0.6530    5.0330 hc        1 MOL      0.032267
    114 H50         0.1980   -1.0860    3.7420 hc        1 MOL      0.032267
    115 H51         2.2840    2.7340    4.0610 hc        1 MOL      0.056352
    116 H52         1.0010    2.4500    5.2290 hc        1 MOL      0.056352
    117 H53         2.4360    1.4440    5.2200 hc        1 MOL      0.056352
    118 H54        -0.3850    0.7560    6.1190 hc        1 MOL      0.104359
    119 H55        -1.6100    0.5560    4.7730 hc        1 MOL      0.104359
    120 H56        -1.0990   -0.8280    5.7070 hc        1 MOL      0.104359
    121 N11        -1.4290   -0.0120    1.4250 n         1 MOL     -0.522169
    122 C40        -1.7510   -1.0260    0.3730 c3        1 MOL     -0.021821
    123 C41        -3.2610   -1.1600    0.0930 c         1 MOL      0.458595
    124 O16        -3.6830   -2.1000   -0.6360 o         1 MOL     -0.514390
    125 C42        -1.3120   -2.4340    0.8160 c3        1 MOL      0.432878
    126 O17        -2.0050   -3.0220    1.9110 oh        1 MOL     -0.603302
    127 H57        -2.1490    0.2410    2.0820 hn        1 MOL      0.342690
    128 H58        -1.2980   -0.8060   -0.6000 h1        1 MOL      0.066793
    129 H59        -0.2310   -2.4080    0.9460 h1        1 MOL     -0.060773
    130 H60        -1.4800   -3.0640   -0.0590 h1        1 MOL     -0.060773
    131 H61        -1.3170   -3.3110    2.5130 ho        1 MOL      0.369701
    132 N12        -4.1890   -0.2940    0.5700 n         1 MOL     -0.365317
    133 C43        -5.5870   -0.1570    0.1070 c3        1 MOL      0.057486
    134 C44        -5.6700    0.2100   -1.4320 c         1 MOL      0.611424
    135 O18        -4.7100    0.6440   -2.0230 o         1 MOL     -0.575365
    136 C45        -6.2680    0.8330    1.1220 c3        1 MOL     -0.267235
    137 H62        -3.8740    0.4320    1.2020 hn        1 MOL      0.213225
    138 H63        -6.0110   -1.1340    0.3060 h1        1 MOL      0.099657
    139 H64        -5.9420    1.8670    1.1210 hc        1 MOL      0.092033
    140 H65        -7.2940    0.9610    0.7700 hc        1 MOL      0.092033
    141 H66        -6.2500    0.4360    2.1360 hc        1 MOL      0.092033
    142 N13        -6.7880    0.1710   -2.0920 n         1 MOL     -0.579518
    143 C46        -8.0940   -0.3350   -1.7370 c3        1 MOL      0.393783
    144 C47        -9.2530    0.3160   -2.5990 c         1 MOL      0.320320
    145 O19        -9.0160    0.5840   -3.7750 o         1 MOL     -0.509617
    146 C48        -8.1050   -1.8090   -1.8810 c3        1 MOL     -0.212817
    147 H67        -6.5530    0.2870   -3.0730 hn        1 MOL      0.317199
    148 H68        -8.2650   -0.0910   -0.6890 h1        1 MOL     -0.036787
    149 H69        -7.7790   -2.1600   -2.8560 hc        1 MOL      0.057224
    150 H70        -7.3750   -2.3020   -1.2330 hc        1 MOL      0.057224
    151 H71        -9.0930   -2.1590   -1.5680 hc        1 MOL      0.057224
    152 N14       -10.4880    0.5060   -2.1280 n         1 MOL     -0.231939
    153 C49       -10.9860    0.2180   -0.7830 c3        1 MOL     -0.377665
    154 C50       -10.4500    1.2080    0.2930 c         1 MOL      0.469343
    155 O20       -10.4030    0.9020    1.4860 o         1 MOL     -0.502788
    156 C51       -12.5670    0.2020   -0.7160 c3        1 MOL      0.310445
    157 C52       -13.1340   -0.5730    0.5030 c3        1 MOL     -0.196922
    158 C53       -14.6720   -0.5970    0.5020 c         1 MOL      0.626769
    159 O21       -15.2980    0.4320    0.9250 o         1 MOL     -0.649459
    160 O22       -15.1860   -1.5200   -0.1890 o         1 MOL     -0.649459
    161 H72       -11.1250    1.0460   -2.6960 hn        1 MOL      0.256502
    162 H73       -10.6540   -0.7730   -0.4690 h1        1 MOL      0.151505
    163 H74       -12.9760   -0.2290   -1.6190 hc        1 MOL     -0.025609
    164 H75       -12.8520    1.2530   -0.6970 hc        1 MOL     -0.025609
    165 H76       -12.7010   -0.2010    1.4300 hc        1 MOL      0.025865
    166 H77       -12.7980   -1.6100    0.4480 hc        1 MOL      0.025865
    167 N15       -10.1890    2.4380   -0.1170 n         1 MOL     -0.194926
    168 C54        -9.3260    3.3300    0.6200 c3        1 MOL     -0.318758
    169 H78        -8.3100    2.9380    0.6150 h1        1 MOL      0.126930
    170 H79        -9.3370    4.3160    0.1530 h1        1 MOL      0.126930
    171 H80        -9.6800    3.4110    1.6480 h1        1 MOL      0.126930
    172 H81       -10.4920    2.6480   -1.0630 hn        1 MOL      0.240541
    173 Ca1         2.8620    0.6000   -0.6930 Ca        1 MOL      1.694989
    174 O23         3.5200    2.4590   -2.7010 oh        1 MOL     -0.847951
    175 H82         3.3820    2.8100   -3.5890 ho        1 MOL      0.421412
    176 H83         4.4570    2.4930   -2.5660 ho        1 MOL      0.421412
    177 O24         0.8560    1.5250   -1.9190 oh        1 MOL     -0.847951
    178 H84        -0.0640    1.2530   -1.9790 ho        1 MOL      0.421412
    179 H85         0.9870    2.0860   -2.6880 ho        1 MOL      0.421412
    180 O25         1.1030   -1.9420   -1.6980 oh        1 MOL     -0.847951
    181 H86         1.7690   -1.5210   -2.2420 ho        1 MOL      0.421412
    182 H87         0.2870   -1.8480   -2.2050 ho        1 MOL      0.421412
@<TRIPOS>BOND
     1    1    2 1   
     2    1    4 1   
     3    1    5 1   
     4    1    6 1   
     5    2    3 2   
     6    2    7 1   
     7    7    8 1   
     8    7   15 1   
     9    8    9 1   
    10    8   11 1   
    11    8   16 1   
    12    9   10 2   
    13    9   19 1   
    14   11   12 1   
    15   11   17 1   
    16   11   18 1   
    17   12   13 1   
    18   12   14 1   
    19   19   20 1   
    20   19   28 1   
    21   20   21 1   
    22   20   23 1   
    23   20   29 1   
    24   21   22 2   
    25   21   41 1   
    26   23   24 1   
    27   23   30 1   
    28   23   31 1   
    29   24   25 1   
    30   24   32 1   
    31   24   33 1   
    32   25   26 1   
    33   25   34 1   
    34   25   35 1   
    35   26   27 1   
    36   26   36 1   
    37   26   37 1   
    38   27   38 1   
    39   27   39 1   
    40   27   40 1   
    41   41   42 1   
    42   41   49 1   
    43   42   43 1   
    44   42   45 1   
    45   42   50 1   
    46   43   44 2   
    47   43   53 1   
    48   45   46 1   
    49   45   51 1   
    50   45   52 1   
    51   46   47 1   
    52   46   48 1   
    53   53   54 1   
    54   53   57 1   
    55   54   55 1   
    56   54   58 1   
    57   54   59 1   
    58   55   56 2   
    59   55   60 1   
    60   60   61 1   
    61   60   68 1   
    62   61   62 1   
    63   61   64 1   
    64   61   69 1   
    65   62   63 2   
    66   62   74 1   
    67   64   65 1   
    68   64   70 1   
    69   64   71 1   
    70   65   66 1   
    71   65   67 2   
    72   66   72 1   
    73   66   73 1   
    74   74   75 1   
    75   74   78 1   
    76   75   76 1   
    77   75   79 1   
    78   75   80 1   
    79   76   77 2   
    80   76   81 1   
    81   81   82 1   
    82   81   93 1   
    83   82   83 1   
    84   82   85 1   
    85   82   94 1   
    86   83   84 2   
    87   83  102 1   
    88   85   86 1   
    89   85   95 1   
    90   85   96 1   
    91   86   87 ar  
    92   86   88 ar  
    93   87   89 ar  
    94   87   97 1   
    95   88   90 ar  
    96   88   98 1   
    97   89   91 ar  
    98   89   99 1   
    99   90   91 ar  
   100   90  100 1   
   101   91   92 1   
   102   92  101 1   
   103  102  103 1   
   104  102  110 1   
   105  103  104 1   
   106  103  106 1   
   107  103  111 1   
   108  104  105 2   
   109  104  121 1   
   110  106  107 1   
   111  106  108 1   
   112  106  112 1   
   113  107  109 1   
   114  107  113 1   
   115  107  114 1   
   116  108  115 1   
   117  108  116 1   
   118  108  117 1   
   119  109  118 1   
   120  109  119 1   
   121  109  120 1   
   122  121  122 1   
   123  121  127 1   
   124  122  123 1   
   125  122  125 1   
   126  122  128 1   
   127  123  124 2   
   128  123  132 1   
   129  125  126 1   
   130  125  129 1   
   131  125  130 1   
   132  126  131 1   
   133  132  133 1   
   134  132  137 1   
   135  133  134 1   
   136  133  136 1   
   137  133  138 1   
   138  134  135 2   
   139  134  142 1   
   140  136  139 1   
   141  136  140 1   
   142  136  141 1   
   143  142  143 1   
   144  142  147 1   
   145  143  144 1   
   146  143  146 1   
   147  143  148 1   
   148  144  145 2   
   149  144  152 1   
   150  146  149 1   
   151  146  150 1   
   152  146  151 1   
   153  152  153 1   
   154  152  161 1   
   155  153  154 1   
   156  153  156 1   
   157  153  162 1   
   158  154  155 2   
   159  154  167 1   
   160  156  157 1   
   161  156  163 1   
   162  156  164 1   
   163  157  158 1   
   164  157  165 1   
   165  157  166 1   
   166  158  159 1   
   167  158  160 1   
   168  167  168 1   
   169  167  172 1   
   170  168  169 1   
   171  168  170 1   
   172  168  171 1   
   173  174  175 1   
   174  174  176 1   
   175  177  178 1   
   176  177  179 1   
   177  180  181 1   
   178  180  182 1   
@<TRIPOS>SUBSTRUCTURE
     1 MOL         1 TEMP              0 ****  ****    0 ROOT
