@<TRIPOS>MOLECULE
MOL
  184   179     1     0     0
SMALL
resp


@<TRIPOS>ATOM
      1 C1          2.2120   -3.0570    3.8420 c3        1 MOL     -0.246395
      2 C2          3.6080   -2.5820    3.3480 c         1 MOL      0.714875
      3 O1          3.8420   -1.3670    3.1050 o         1 MOL     -0.542318
      4 H1          2.0830   -4.1130    3.6020 hc        1 MOL      0.045878
      5 H2          2.1420   -2.9190    4.9210 hc        1 MOL      0.045878
      6 H3          1.4340   -2.4750    3.3490 hc        1 MOL      0.045878
      7 N1          4.5930   -3.5450    3.1700 n         1 MOL     -0.525306
      8 C3          5.9320   -3.2530    2.7190 c3        1 MOL     -0.031502
      9 C4          5.9740   -3.0720    1.1760 c         1 MOL      0.531533
     10 O2          5.1370   -3.5460    0.4500 o         1 MOL     -0.454328
     11 C5          6.8370   -4.3710    3.2730 c3        1 MOL     -0.026888
     12 C6          8.2910   -4.1630    2.9800 c         1 MOL      0.709169
     13 O3          8.8480   -3.1950    3.5620 o         1 MOL     -0.737518
     14 O4          8.8980   -5.0300    2.2980 o         1 MOL     -0.737518
     15 H4          4.3800   -4.5110    3.3390 hn        1 MOL      0.245279
     16 H5          6.2210   -2.2840    3.1190 h1        1 MOL      0.066423
     17 H6          6.5850   -5.3160    2.8010 hc        1 MOL     -0.023906
     18 H7          6.7780   -4.4800    4.3620 hc        1 MOL     -0.023906
     19 N2          7.0620   -2.3840    0.7310 n         1 MOL     -0.389912
     20 C7          7.2650   -1.9690   -0.5850 c3        1 MOL      0.090934
     21 C8          6.1870   -1.0000   -1.1720 c         1 MOL      0.771170
     22 O5          6.1190    0.2150   -0.7240 o         1 MOL     -0.604717
     23 C9          8.7070   -1.3980   -0.7490 c3        1 MOL     -0.378634
     24 H8          7.6960   -1.9340    1.3840 hn        1 MOL      0.270291
     25 H9          7.2390   -2.8910   -1.1660 h1        1 MOL      0.022663
     26 H10         8.7490   -1.0050   -1.7700 hc        1 MOL      0.108021
     27 H11         8.9380   -0.4950   -0.1860 hc        1 MOL      0.108021
     28 H12         9.4320   -2.2060   -0.7150 hc        1 MOL      0.108021
     29 N3          5.4720   -1.4930   -2.1570 n         1 MOL     -0.718790
     30 C10         4.5430   -0.7070   -2.9890 c3        1 MOL      0.404228
     31 C11         5.1880    0.3350   -3.9430 c         1 MOL      0.345706
     32 O6          6.3150    0.0630   -4.3440 o         1 MOL     -0.490880
     33 C12         3.4580   -1.6240   -3.6570 c3        1 MOL     -0.187791
     34 C13         2.5820   -2.4750   -2.7600 c         1 MOL      0.773988
     35 O7          2.6070   -2.4120   -1.4840 o         1 MOL     -0.729127
     36 O8          1.7590   -3.2750   -3.2500 o         1 MOL     -0.729127
     37 H13         5.5370   -2.4790   -2.3280 hn        1 MOL      0.323387
     38 H14         3.9600   -0.1050   -2.2950 h1        1 MOL      0.002842
     39 H15         3.9050   -2.2870   -4.3990 hc        1 MOL     -0.010242
     40 H16         2.8290   -0.9410   -4.2210 hc        1 MOL     -0.010242
     41 N4          4.5740    1.5010   -4.2400 n         1 MOL     -0.269911
     42 C14         4.9850    2.5890   -5.0860 c3        1 MOL     -0.060704
     43 C15         4.8200    3.9790   -4.4170 c         1 MOL      0.666433
     44 O9          5.3240    5.0120   -4.8360 o         1 MOL     -0.578928
     45 H17         3.5850    1.5140   -3.9980 hn        1 MOL      0.262978
     46 H18         4.2400    2.6030   -5.8820 h1        1 MOL      0.054029
     47 H19         6.0310    2.5140   -5.3690 h1        1 MOL      0.054029
     48 N5          3.9580    4.0030   -3.3890 n         1 MOL     -0.533750
     49 C16         3.5020    5.2300   -2.6460 c3        1 MOL      0.338178
     50 C17         3.6990    5.1310   -1.1300 c         1 MOL      0.377159
     51 O10         3.7810    3.9660   -0.6560 o         1 MOL     -0.429350
     52 C18         2.0020    5.4070   -2.9230 c3        1 MOL     -0.440024
     53 C19         1.9240    5.9190   -4.3340 c         1 MOL      0.688634
     54 N6          1.5970    5.0200   -5.2200 n         1 MOL     -0.748533
     55 O11         2.0670    7.0670   -4.6370 o         1 MOL     -0.554022
     56 H20         3.5350    3.1470   -3.0570 hn        1 MOL      0.217069
     57 H21         3.8520    6.1980   -2.9960 h1        1 MOL      0.020885
     58 H22         1.6170    6.1750   -2.2400 hc        1 MOL      0.127061
     59 H23         1.4550    4.4760   -2.8130 hc        1 MOL      0.127061
     60 H24         1.2600    4.1390   -4.8590 hn        1 MOL      0.346683
     61 H25         1.4700    5.2520   -6.2000 hn        1 MOL      0.346683
     62 N7          3.6080    6.2070   -0.3490 n         1 MOL     -0.481819
     63 C20         3.2980    6.1180    1.1010 c3        1 MOL      0.058767
     64 C21         1.7980    5.8630    1.4770 c         1 MOL      0.620970
     65 O12         1.0330    5.2590    0.7340 o         1 MOL     -0.463033
     66 H26         3.5020    7.0930   -0.8350 hn        1 MOL      0.292889
     67 H27         3.6180    6.9830    1.6880 h1        1 MOL      0.058649
     68 H28         3.9310    5.3350    1.5020 h1        1 MOL      0.058649
     69 N8          1.3990    6.4280    2.6620 n         1 MOL     -0.559079
     70 C22        -0.0280    6.7640    2.8960 c3        1 MOL     -0.295931
     71 C23        -1.0370    5.6220    2.9710 c         1 MOL      0.469552
     72 O13        -2.2240    5.9020    2.9880 o         1 MOL     -0.568635
     73 C24        -0.1800    7.7130    4.0530 c3        1 MOL      0.578862
     74 C25         0.1580    7.1630    5.4190 c3        1 MOL     -0.356622
     75 O14         0.7240    8.7520    3.8590 oh        1 MOL     -0.669716
     76 H29         2.1370    6.7690    3.2500 hn        1 MOL      0.261928
     77 H30        -0.2970    7.3150    1.9980 h1        1 MOL      0.167535
     78 H31        -1.2510    7.9410    4.0880 h1        1 MOL      0.010447
     79 H32         1.5890    8.3350    3.9270 ho        1 MOL      0.401003
     80 H33         0.3270    8.0000    6.1000 hc        1 MOL      0.075288
     81 H34        -0.7250    6.6550    5.8210 hc        1 MOL      0.075288
     82 H35         0.9520    6.4220    5.5140 hc        1 MOL      0.075288
     83 N9         -0.5910    4.4120    2.9770 n         1 MOL     -0.098128
     84 C26        -1.3500    3.1390    3.0320 c3        1 MOL      0.027323
     85 C27        -1.0970    2.1340    1.8730 c         1 MOL      0.545086
     86 O15        -0.1190    2.3820    1.2030 o         1 MOL     -0.475030
     87 C28        -1.1600    2.5140    4.4370 c3        1 MOL      0.190707
     88 C29         0.2450    1.9720    4.8660 c3        1 MOL      0.130025
     89 C30        -1.5870    3.4160    5.5840 c3        1 MOL     -0.350687
     90 C31         1.4590    2.9600    4.8540 c3        1 MOL     -0.344697
     91 H36         0.4120    4.2360    2.9760 hn        1 MOL      0.117556
     92 H37        -2.4010    3.4170    2.9380 h1        1 MOL      0.038463
     93 H38        -1.8490    1.6710    4.4560 hc        1 MOL     -0.040717
     94 H39         0.5400    1.0800    4.3120 hc        1 MOL     -0.002587
     95 H40         0.1610    1.6400    5.9040 hc        1 MOL     -0.002587
     96 H41        -1.5570    2.8230    6.4890 hc        1 MOL      0.072162
     97 H42        -0.8590    4.2290    5.6920 hc        1 MOL      0.072162
     98 H43        -2.5630    3.8450    5.3830 hc        1 MOL      0.072162
     99 H44         1.3130    3.9800    5.2170 hc        1 MOL      0.095865
    100 H45         2.2740    2.5000    5.4120 hc        1 MOL      0.095865
    101 H46         1.9080    2.9830    3.8580 hc        1 MOL      0.095865
    102 N10        -1.8890    1.1320    1.7010 n         1 MOL     -0.806941
    103 C32        -1.6990    0.0490    0.7120 c3        1 MOL      0.534182
    104 C33        -3.0340   -0.1220   -0.0990 c         1 MOL      0.439906
    105 O16        -3.5880   -1.1710   -0.2550 o         1 MOL     -0.491396
    106 C34        -1.2190   -1.2270    1.4260 c3        1 MOL     -0.218667
    107 C35        -0.4660   -2.2790    0.6020 c         1 MOL      0.800228
    108 O17         0.1330   -3.2230    1.1230 o         1 MOL     -0.752863
    109 O18        -0.2500   -2.0920   -0.6090 o         1 MOL     -0.752863
    110 H47        -2.6320    0.9630    2.3670 hn        1 MOL      0.368023
    111 H48        -0.9670    0.4190   -0.0140 h1        1 MOL      0.003523
    112 H49        -2.0040   -1.7070    2.0090 hc        1 MOL      0.029485
    113 H50        -0.4720   -0.9540    2.1740 hc        1 MOL      0.029485
    114 N11        -3.5490    1.0720   -0.5530 n         1 MOL     -0.574524
    115 C36        -4.8530    1.2270   -1.1840 c3        1 MOL      0.292986
    116 C37        -5.9300    0.3380   -0.6030 c         1 MOL      0.242133
    117 O19        -6.1290    0.4030    0.6000 o         1 MOL     -0.488359
    118 C38        -5.2670    2.6850   -1.1520 c3        1 MOL     -0.250903
    119 C39        -6.5690    2.9120   -1.8660 ca        1 MOL      0.008865
    120 C40        -6.6280    3.2210   -3.2300 ca        1 MOL     -0.104157
    121 C41        -7.7950    2.8330   -1.1510 ca        1 MOL     -0.104157
    122 C42        -7.8360    3.4620   -3.8690 ca        1 MOL     -0.110306
    123 C43        -9.0250    2.9950   -1.8250 ca        1 MOL     -0.110306
    124 C44        -9.0390    3.4030   -3.1660 ca        1 MOL     -0.153623
    125 H51        -3.0660    1.9610   -0.5230 hn        1 MOL      0.308832
    126 H52        -4.6950    0.9240   -2.2150 h1        1 MOL      0.002181
    127 H53        -4.5400    3.2600   -1.7240 hc        1 MOL      0.113876
    128 H54        -5.2970    3.0970   -0.1440 hc        1 MOL      0.113876
    129 H55        -5.7370    3.4610   -3.7880 ha        1 MOL      0.110777
    130 H56        -7.7490    2.6990   -0.0790 ha        1 MOL      0.110777
    131 H57        -7.8270    3.7980   -4.8920 ha        1 MOL      0.106567
    132 H58        -9.9620    2.9110   -1.2770 ha        1 MOL      0.106567
    133 H59        -9.9030    3.8480   -3.6440 ha        1 MOL      0.115610
    134 N12        -6.7340   -0.3940   -1.3890 n         1 MOL     -0.001070
    135 C45        -7.8700   -1.1160   -0.8550 c3        1 MOL      0.047612
    136 C46        -7.4800   -2.2850    0.1620 c         1 MOL      0.246502
    137 O20        -8.2930   -2.6220    1.0000 o         1 MOL     -0.503205
    138 C47        -8.5780   -1.7410   -2.0780 c3        1 MOL      0.182512
    139 C48        -8.3240   -0.7060   -3.1900 c3        1 MOL     -0.413163
    140 C49        -6.9130   -0.3550   -2.8180 c3        1 MOL      0.504295
    141 H60        -8.5300   -0.3980   -0.3740 h1        1 MOL      0.048222
    142 H61        -8.1100   -2.6960   -2.2860 hc        1 MOL     -0.021397
    143 H62        -9.6530   -1.8220   -1.8820 hc        1 MOL     -0.021397
    144 H63        -8.2480   -1.2350   -4.1300 hc        1 MOL      0.093922
    145 H64        -9.1050    0.0380   -3.0840 hc        1 MOL      0.093922
    146 H65        -6.1990   -1.0710   -3.2270 h1        1 MOL     -0.118722
    147 H66        -6.6650    0.6280   -3.2250 h1        1 MOL     -0.118722
    148 N13        -6.3030   -2.9280    0.0170 n         1 MOL     -0.166293
    149 C50        -5.9480   -4.1000    0.8350 c3        1 MOL     -0.088159
    150 C51        -5.8250   -3.7300    2.3050 c         1 MOL      0.549941
    151 O21        -5.9570   -4.5540    3.1730 o         1 MOL     -0.555631
    152 C52        -4.6530   -4.6620    0.2550 c3        1 MOL      0.300124
    153 C53        -4.6580   -6.1730    0.4410 c3        1 MOL     -0.438528
    154 C54        -3.5570   -6.8420   -0.4520 c         1 MOL      0.860393
    155 O22        -2.5760   -7.4340    0.1050 o         1 MOL     -0.751715
    156 O23        -3.6780   -6.9170   -1.6910 o         1 MOL     -0.751715
    157 H67        -5.7060   -2.5630   -0.7170 hn        1 MOL      0.168659
    158 H68        -6.7900   -4.7960    0.8460 h1        1 MOL      0.095191
    159 H69        -3.8140   -4.1630    0.7190 hc        1 MOL     -0.080402
    160 H70        -4.6470   -4.4600   -0.8110 hc        1 MOL     -0.080402
    161 H71        -5.6190   -6.5740    0.1170 hc        1 MOL      0.076935
    162 H72        -4.4630   -6.4810    1.4670 hc        1 MOL      0.076935
    163 N14        -5.4800   -2.4710    2.6510 n         1 MOL     -0.200328
    164 C55        -5.5790   -1.8670    3.9610 c3        1 MOL     -0.344738
    165 H73        -6.1730   -2.5070    4.6120 h1        1 MOL      0.120118
    166 H74        -4.5820   -1.7460    4.3830 h1        1 MOL      0.120118
    167 H75        -6.0590   -0.8920    3.8750 h1        1 MOL      0.120118
    168 H76        -5.2740   -1.7620    1.9500 hn        1 MOL      0.244695
    169 Ca1         1.2170   -4.6080   -1.0230 Ca        1 MOL      1.852256
    170 O24        -0.3280   -6.2000    0.3690 oh        1 MOL     -0.936894
    171 H77        -0.9300   -6.9130    0.1430 ho        1 MOL      0.442289
    172 H78        -0.7380   -5.7490    1.0930 ho        1 MOL      0.442289
    173 O25        -1.1410   -4.7090   -2.2390 oh        1 MOL     -0.936894
    174 H79        -1.9170   -5.1880   -1.9280 ho        1 MOL      0.442289
    175 H80        -1.3890   -4.4060   -3.1110 ho        1 MOL      0.442289
    176 O26         3.5840   -5.4090   -2.0280 oh        1 MOL     -0.936894
    177 H81         4.2890   -6.0200   -1.7890 ho        1 MOL      0.442289
    178 H82         3.5270   -5.4600   -2.9800 ho        1 MOL      0.442289
    179 O27         3.0390   -4.8360    0.8810 oh        1 MOL     -0.936894
    180 H83         3.8370   -4.6040    0.4140 ho        1 MOL      0.442289
    181 H84         3.3550   -5.2430    1.6890 ho        1 MOL      0.442289
    182 O28         0.8000   -6.9650   -2.3180 oh        1 MOL     -0.936894
    183 H85         0.0080   -7.2080   -2.7950 ho        1 MOL      0.442289
    184 H86         1.2530   -7.7950   -2.1720 ho        1 MOL      0.442289
@<TRIPOS>BOND
     1    1    2 1   
     2    1    4 1   
     3    1    5 1   
     4    1    6 1   
     5    2    3 2   
     6    2    7 1   
     7    7    8 1   
     8    7   15 1   
     9    8    9 1   
    10    8   11 1   
    11    8   16 1   
    12    9   10 2   
    13    9   19 1   
    14   11   12 1   
    15   11   17 1   
    16   11   18 1   
    17   12   13 1   
    18   12   14 1   
    19   19   20 1   
    20   19   24 1   
    21   20   21 1   
    22   20   23 1   
    23   20   25 1   
    24   21   22 2   
    25   21   29 1   
    26   23   26 1   
    27   23   27 1   
    28   23   28 1   
    29   29   30 1   
    30   29   37 1   
    31   30   31 1   
    32   30   33 1   
    33   30   38 1   
    34   31   32 2   
    35   31   41 1   
    36   33   34 1   
    37   33   39 1   
    38   33   40 1   
    39   34   35 1   
    40   34   36 1   
    41   41   42 1   
    42   41   45 1   
    43   42   43 1   
    44   42   46 1   
    45   42   47 1   
    46   43   44 2   
    47   43   48 1   
    48   48   49 1   
    49   48   56 1   
    50   49   50 1   
    51   49   52 1   
    52   49   57 1   
    53   50   51 2   
    54   50   62 1   
    55   52   53 1   
    56   52   58 1   
    57   52   59 1   
    58   53   54 1   
    59   53   55 2   
    60   54   60 1   
    61   54   61 1   
    62   62   63 1   
    63   62   66 1   
    64   63   64 1   
    65   63   67 1   
    66   63   68 1   
    67   64   65 2   
    68   64   69 1   
    69   69   70 1   
    70   69   76 1   
    71   70   71 1   
    72   70   73 1   
    73   70   77 1   
    74   71   72 2   
    75   71   83 1   
    76   73   74 1   
    77   73   75 1   
    78   73   78 1   
    79   74   80 1   
    80   74   81 1   
    81   74   82 1   
    82   75   79 1   
    83   83   84 1   
    84   83   91 1   
    85   84   85 1   
    86   84   87 1   
    87   84   92 1   
    88   85   86 2   
    89   85  102 1   
    90   87   88 1   
    91   87   89 1   
    92   87   93 1   
    93   88   90 1   
    94   88   94 1   
    95   88   95 1   
    96   89   96 1   
    97   89   97 1   
    98   89   98 1   
    99   90   99 1   
   100   90  100 1   
   101   90  101 1   
   102  102  103 1   
   103  102  110 1   
   104  103  104 1   
   105  103  106 1   
   106  103  111 1   
   107  104  105 2   
   108  104  114 1   
   109  106  107 1   
   110  106  112 1   
   111  106  113 1   
   112  107  108 1   
   113  107  109 1   
   114  114  115 1   
   115  114  125 1   
   116  115  116 1   
   117  115  118 1   
   118  115  126 1   
   119  116  117 2   
   120  116  134 1   
   121  118  119 1   
   122  118  127 1   
   123  118  128 1   
   124  119  120 ar  
   125  119  121 ar  
   126  120  122 ar  
   127  120  129 1   
   128  121  123 ar  
   129  121  130 1   
   130  122  124 ar  
   131  122  131 1   
   132  123  124 ar  
   133  123  132 1   
   134  124  133 1   
   135  134  135 1   
   136  134  140 1   
   137  135  136 1   
   138  135  138 1   
   139  135  141 1   
   140  136  137 2   
   141  136  148 1   
   142  138  139 1   
   143  138  142 1   
   144  138  143 1   
   145  139  140 1   
   146  139  144 1   
   147  139  145 1   
   148  140  146 1   
   149  140  147 1   
   150  148  149 1   
   151  148  157 1   
   152  149  150 1   
   153  149  152 1   
   154  149  158 1   
   155  150  151 2   
   156  150  163 1   
   157  152  153 1   
   158  152  159 1   
   159  152  160 1   
   160  153  154 1   
   161  153  161 1   
   162  153  162 1   
   163  154  155 1   
   164  154  156 1   
   165  163  164 1   
   166  163  168 1   
   167  164  165 1   
   168  164  166 1   
   169  164  167 1   
   170  170  171 1   
   171  170  172 1   
   172  173  174 1   
   173  173  175 1   
   174  176  177 1   
   175  176  178 1   
   176  179  180 1   
   177  179  181 1   
   178  182  183 1   
   179  182  184 1   
@<TRIPOS>SUBSTRUCTURE
     1 MOL         1 TEMP              0 ****  ****    0 ROOT
