@<TRIPOS>MOLECULE
MOL
  192   187     1     0     0
SMALL
resp


@<TRIPOS>ATOM
      1 C1          5.4830    4.1570   -3.2600 c3        1 MOL     -0.407960
      2 C2          5.9980    3.2140   -2.1680 c         1 MOL      0.799720
      3 O1          5.2300    2.9270   -1.1590 o         1 MOL     -0.699956
      4 H1          4.6890    3.6630   -3.8210 hc        1 MOL      0.101158
      5 H2          5.0930    5.0650   -2.8020 hc        1 MOL      0.101158
      6 H3          6.3000    4.4130   -3.9360 hc        1 MOL      0.101158
      7 N1          7.1950    2.6500   -2.3930 n         1 MOL     -0.537965
      8 C3          7.6280    1.4270   -1.7720 c3        1 MOL      0.175500
      9 C4          6.5140    0.4190   -1.5390 c         1 MOL      0.357946
     10 O2          5.9520    0.2260   -0.4610 o         1 MOL     -0.601991
     11 C5          8.4970    1.7170   -0.5200 c3        1 MOL      0.001672
     12 C6          8.1310    2.9350    0.2190 c         1 MOL      0.656366
     13 O3          7.1640    2.8480    1.0620 o         1 MOL     -0.717742
     14 O4          8.7570    3.9830   -0.0110 o         1 MOL     -0.717742
     15 H4          7.6790    2.8050   -3.2700 hn        1 MOL      0.288873
     16 H5          8.3140    0.8950   -2.4200 h1        1 MOL      0.041474
     17 H6          9.4780    1.8800   -0.9580 hc        1 MOL     -0.010253
     18 H7          8.6400    0.8120    0.0660 hc        1 MOL     -0.010253
     19 N2          6.0920   -0.2140   -2.6700 n         1 MOL     -0.429154
     20 C7          5.0650   -1.2820   -2.9080 c3        1 MOL      0.075798
     21 C8          5.5810   -2.5810   -2.2200 c         1 MOL      0.404187
     22 O5          5.6090   -3.5580   -2.9470 o         1 MOL     -0.531956
     23 C9          3.6430   -0.9390   -2.5380 c3        1 MOL      0.182826
     24 C10         2.6210   -2.0680   -2.9610 c3        1 MOL     -0.269669
     25 C11         3.2110    0.3860   -3.2860 c3        1 MOL     -0.494406
     26 C12         2.6360   -2.5200   -4.4030 c3        1 MOL     -0.029563
     27 H8          6.6160    0.1270   -3.4670 hn        1 MOL      0.237219
     28 H9          5.1490   -1.3900   -3.9870 h1        1 MOL      0.072926
     29 H10         3.5500   -0.9200   -1.4490 hc        1 MOL     -0.013236
     30 H11         1.6290   -1.6560   -2.7610 hc        1 MOL      0.121561
     31 H12         2.8690   -2.9090   -2.3160 hc        1 MOL      0.121561
     32 H13         3.6060    1.2060   -2.6800 hc        1 MOL      0.139351
     33 H14         3.5120    0.4210   -4.3270 hc        1 MOL      0.139351
     34 H15         2.1330    0.4750   -3.1380 hc        1 MOL      0.139351
     35 H16         3.6050   -2.9660   -4.6560 hc        1 MOL      0.005949
     36 H17         1.9150   -3.2800   -4.6850 hc        1 MOL      0.005949
     37 H18         2.4840   -1.8200   -5.2230 hc        1 MOL      0.005949
     38 N3          6.0120   -2.5720   -0.9770 n         1 MOL     -0.141968
     39 C13         6.4420   -3.7860   -0.3670 c3        1 MOL     -0.033424
     40 C14         5.4510   -4.9770   -0.3390 c         1 MOL      0.486274
     41 O6          5.7540   -6.1340   -0.7260 o         1 MOL     -0.584471
     42 C15         6.9190   -3.4680    1.0120 c3        1 MOL     -0.217027
     43 C16         7.6870   -2.1720    1.2170 c         1 MOL      0.794423
     44 O7          7.3090   -1.4430    2.1340 o         1 MOL     -0.714073
     45 O8          8.6420   -1.8870    0.4870 o         1 MOL     -0.714073
     46 H19         5.9430   -1.6800   -0.4900 hn        1 MOL      0.238512
     47 H20         7.2680   -4.1450   -0.9780 h1        1 MOL      0.065745
     48 H21         7.5830   -4.2360    1.3820 hc        1 MOL      0.046376
     49 H22         6.0600   -3.4670    1.6710 hc        1 MOL      0.046376
     50 N4          4.1990   -4.8340    0.0340 n         1 MOL     -0.372499
     51 C17         3.5050   -3.6550    0.6230 c3        1 MOL      0.110752
     52 C18         2.3720   -4.2260    1.4380 c         1 MOL      0.441617
     53 O9          1.8560   -5.3140    1.1970 o         1 MOL     -0.582153
     54 H23         3.6360   -5.6740    0.0710 hn        1 MOL      0.256902
     55 H24         3.2080   -2.8780   -0.0830 h1        1 MOL      0.053133
     56 H25         4.1670   -3.1970    1.3650 h1        1 MOL      0.053133
     57 N5          1.8340   -3.5730    2.4190 n         1 MOL     -0.373498
     58 C19         2.3220   -2.3130    3.0110 c3        1 MOL      0.100192
     59 C20         2.3880   -1.1590    2.0900 c         1 MOL      0.239593
     60 O10         3.4690   -0.5920    1.8550 o         1 MOL     -0.457049
     61 C21         3.4290   -2.5040    4.1140 c3        1 MOL     -0.267112
     62 C22         3.3760   -1.2440    5.0190 c         1 MOL      0.704182
     63 O11         4.4690   -0.8520    5.5010 o         1 MOL     -0.685863
     64 O12         2.3280   -0.5250    5.1470 o         1 MOL     -0.685863
     65 H26         1.0650   -4.0570    2.8620 hn        1 MOL      0.279063
     66 H27         1.4670   -2.1220    3.6680 h1        1 MOL      0.053608
     67 H28         4.4300   -2.6770    3.7420 hc        1 MOL      0.071538
     68 H29         3.2240   -3.2990    4.8440 hc        1 MOL      0.071538
     69 N6          1.2980   -0.7510    1.4140 n         1 MOL     -0.088497
     70 C23        -0.0900   -1.1060    1.6820 c3        1 MOL      0.013767
     71 C24        -0.6420   -2.2150    0.7800 c         1 MOL      0.588455
     72 O13         0.1050   -2.7370   -0.0270 o         1 MOL     -0.482397
     73 H30         1.6000   -0.1680    0.6440 hn        1 MOL      0.110270
     74 H31        -0.6740   -0.2170    1.4870 h1        1 MOL      0.028196
     75 H32        -0.1840   -1.3600    2.7340 h1        1 MOL      0.028196
     76 N7         -1.8320   -2.7900    1.2160 n         1 MOL     -0.531887
     77 C25        -2.3900   -4.0760    0.6880 c3        1 MOL     -0.041114
     78 C26        -2.8020   -3.9680   -0.7670 c         1 MOL      0.435540
     79 O14        -3.1120   -4.9520   -1.4440 o         1 MOL     -0.498436
     80 C27        -3.7110   -4.2380    1.4720 c3        1 MOL      0.007425
     81 C28        -4.3620   -5.6140    1.2640 c3        1 MOL     -0.244326
     82 C29        -5.3680   -5.9770    2.3600 c         1 MOL      0.634497
     83 N8         -6.6390   -5.8940    2.0910 n         1 MOL     -0.705704
     84 O15        -5.0420   -6.3550    3.5100 o         1 MOL     -0.599525
     85 H33        -2.4070   -2.3170    1.8960 hn        1 MOL      0.271721
     86 H34        -1.6180   -4.8250    0.8790 h1        1 MOL      0.180304
     87 H35        -4.5040   -3.5320    1.2380 hc        1 MOL      0.046858
     88 H36        -3.5800   -4.0800    2.5420 hc        1 MOL      0.046858
     89 H37        -3.6130   -6.3990    1.2050 hc        1 MOL      0.079709
     90 H38        -4.8950   -5.7740    0.3260 hc        1 MOL      0.079709
     91 H39        -6.9610   -5.5500    1.2040 hn        1 MOL      0.337340
     92 H40        -7.2620   -6.2300    2.8100 hn        1 MOL      0.337340
     93 N9         -2.7340   -2.7340   -1.3890 n         1 MOL     -0.222153
     94 C30        -3.0840   -2.5650   -2.8310 c3        1 MOL      0.001715
     95 C31        -4.4800   -2.0590   -3.0630 c         1 MOL      0.432064
     96 O16        -4.9730   -2.0890   -4.1680 o         1 MOL     -0.548308
     97 C32        -2.0260   -1.7420   -3.6080 c3        1 MOL      0.109893
     98 C33        -0.8400   -2.6630   -3.9360 c3        1 MOL     -0.182374
     99 C34        -1.4210   -0.5410   -2.8440 c3        1 MOL     -0.182374
    100 H41        -2.5200   -1.9080   -0.8460 hn        1 MOL      0.165702
    101 H42        -3.0860   -3.4930   -3.4060 h1        1 MOL      0.105972
    102 H43        -2.4470   -1.4520   -4.5690 hc        1 MOL      0.025518
    103 H44        -0.0810   -2.1590   -4.5290 hc        1 MOL      0.042944
    104 H45        -0.3190   -3.1100   -3.0860 hc        1 MOL      0.042944
    105 H46        -1.2860   -3.5260   -4.4300 hc        1 MOL      0.042944
    106 H47        -0.7870    0.0280   -3.5290 hc        1 MOL      0.042944
    107 H48        -2.3100    0.0360   -2.5910 hc        1 MOL      0.042944
    108 H49        -0.8200   -0.8670   -1.9930 hc        1 MOL      0.042944
    109 N10        -5.2110   -1.4660   -2.0710 n         1 MOL     -0.330866
    110 C35        -6.6350   -1.0890   -2.1070 c3        1 MOL      0.055264
    111 C36        -6.8440    0.3630   -1.6490 c         1 MOL      0.587190
    112 O17        -7.8360    1.0370   -1.9140 o         1 MOL     -0.534495
    113 C37        -7.2910   -2.2250   -1.2130 c3        1 MOL     -0.373700
    114 C38        -7.1700   -3.6490   -1.7000 c         1 MOL      0.719497
    115 N11        -7.1340   -4.0180   -2.9490 n         1 MOL     -0.790493
    116 O18        -7.0900   -4.5270   -0.8600 o         1 MOL     -0.603397
    117 H50        -4.6830   -1.4020   -1.2120 hn        1 MOL      0.213437
    118 H51        -7.0980   -1.1810   -3.0900 h1        1 MOL      0.077568
    119 H52        -8.3480   -1.9660   -1.2270 hc        1 MOL      0.134898
    120 H53        -6.8780   -2.0820   -0.2220 hc        1 MOL      0.134898
    121 H54        -7.1070   -3.3230   -3.6830 hn        1 MOL      0.384582
    122 H55        -6.9130   -4.9980   -3.0820 hn        1 MOL      0.384582
    123 N12        -5.8280    0.9410   -0.9040 n         1 MOL     -0.532885
    124 C39        -5.9720    2.1520   -0.1310 c3        1 MOL      0.143337
    125 C40        -4.6420    2.9910   -0.0330 c         1 MOL      0.413624
    126 O19        -3.5970    2.4320    0.1470 o         1 MOL     -0.432050
    127 C41        -6.4900    1.9620    1.2980 c3        1 MOL      0.072100
    128 C42        -7.7820    1.1900    1.3100 ca        1 MOL     -0.042739
    129 C43        -8.9620    1.9090    0.9600 ca        1 MOL     -0.125938
    130 C44        -7.8460   -0.1340    1.7720 ca        1 MOL     -0.125938
    131 C45       -10.2020    1.1730    0.9140 ca        1 MOL     -0.261373
    132 C46        -9.0400   -0.8140    1.8010 ca        1 MOL     -0.261373
    133 C47       -10.2040   -0.1740    1.3170 ca        1 MOL      0.373637
    134 O20       -11.4430   -0.7550    1.3380 oh        1 MOL     -0.564913
    135 H56        -5.0000    0.4040   -0.6970 hn        1 MOL      0.249181
    136 H57        -6.7030    2.8140   -0.5970 h1        1 MOL      0.042569
    137 H58        -6.6830    2.8870    1.8270 hc        1 MOL      0.028074
    138 H59        -5.7050    1.4350    1.8310 hc        1 MOL      0.028074
    139 H60        -8.8860    2.9050    0.5470 ha        1 MOL      0.133179
    140 H61        -6.9610   -0.6630    2.1070 ha        1 MOL      0.133179
    141 H62       -11.1090    1.7090    0.6750 ha        1 MOL      0.138716
    142 H63        -9.0540   -1.8450    2.1340 ha        1 MOL      0.138716
    143 H64       -12.2060   -0.1800    1.4050 ho        1 MOL      0.386675
    144 N13        -4.7810    4.3580    0.0390 n         1 MOL     -0.506946
    145 C48        -3.7780    5.3740    0.4010 c3        1 MOL      0.088158
    146 C49        -2.4060    5.4040   -0.4080 c         1 MOL      0.412101
    147 O21        -2.0460    6.4630   -0.7740 o         1 MOL     -0.487948
    148 C50        -3.5540    5.5140    1.8350 c3        1 MOL      0.096508
    149 C51        -4.8020    5.8390    2.7090 c3        1 MOL     -0.193656
    150 C52        -4.4580    5.9220    4.1720 c         1 MOL      0.718868
    151 O22        -4.9220    5.0990    4.9620 o         1 MOL     -0.736767
    152 O23        -3.7070    6.8480    4.5610 o         1 MOL     -0.736767
    153 H65        -5.6810    4.7100   -0.2460 hn        1 MOL      0.287946
    154 H66        -4.2440    6.3050    0.0750 h1        1 MOL      0.031005
    155 H67        -2.8030    6.2810    2.0600 hc        1 MOL      0.011403
    156 H68        -3.1210    4.5390    2.0900 hc        1 MOL      0.011403
    157 H69        -5.5270    5.0300    2.5960 hc        1 MOL      0.003603
    158 H70        -5.2810    6.7760    2.4770 hc        1 MOL      0.003603
    159 N14        -1.8160    4.2560   -0.8120 n         1 MOL     -0.328944
    160 C53        -0.6080    4.3500   -1.7270 c3        1 MOL      0.091875
    161 C54        -0.9120    4.9970   -3.0680 c         1 MOL      0.410684
    162 O24         0.0300    5.5560   -3.7440 o         1 MOL     -0.553291
    163 C55        -0.0820    2.9750   -2.0890 c3        1 MOL     -0.205311
    164 C56         0.2790    2.0690   -0.8770 c3        1 MOL      0.168466
    165 C57         1.3820    2.6810    0.0670 c         1 MOL      0.600246
    166 O25         2.4550    2.0010    0.2430 o         1 MOL     -0.609350
    167 O26         1.1670    3.7400    0.6620 o         1 MOL     -0.609350
    168 H71        -2.1860    3.3520   -0.5270 hn        1 MOL      0.242075
    169 H72         0.1870    4.8940   -1.2130 h1        1 MOL      0.096001
    170 H73         0.8830    3.1560   -2.5650 hc        1 MOL      0.051167
    171 H74        -0.8300    2.5030   -2.7270 hc        1 MOL      0.051167
    172 H75         0.6730    1.1150   -1.2400 hc        1 MOL     -0.082839
    173 H76        -0.6410    1.8430   -0.3190 hc        1 MOL     -0.082839
    174 N15        -2.1460    4.9570   -3.5210 n         1 MOL     -0.214492
    175 C58        -2.7340    5.7910   -4.5960 c3        1 MOL     -0.279523
    176 H77        -3.4790    5.2100   -5.1400 h1        1 MOL      0.117007
    177 H78        -3.2080    6.6690   -4.1570 h1        1 MOL      0.117007
    178 H79        -1.9480    6.1060   -5.2820 h1        1 MOL      0.117007
    179 H80        -2.7460    4.3400   -2.9790 hn        1 MOL      0.205939
    180 Ca1         4.7480    1.8730    1.3590 Ca        1 MOL      1.800161
    181 O27         3.6770    4.5150    1.1670 oh        1 MOL     -0.842708
    182 H81         3.8260    5.4200    0.9030 ho        1 MOL      0.398248
    183 H82         2.7840    4.3160    0.8810 ho        1 MOL      0.398248
    184 O28         5.4320    3.0360    3.5880 oh        1 MOL     -0.842708
    185 H83         5.0110    3.4730    4.3230 ho        1 MOL      0.398248
    186 H84         6.1250    2.5100    3.9850 ho        1 MOL      0.398248
    187 O29         2.9380    1.6220    3.4330 oh        1 MOL     -0.842708
    188 H85         2.9980    0.8880    4.0430 ho        1 MOL      0.398248
    189 H86         2.0810    2.0120    3.5970 ho        1 MOL      0.398248
    190 O30         5.8060    0.3080    3.2370 oh        1 MOL     -0.842708
    191 H87         6.3120   -0.4260    2.8650 ho        1 MOL      0.398248
    192 H88         5.4550   -0.0410    4.0570 ho        1 MOL      0.398248
@<TRIPOS>BOND
     1    1    2 1   
     2    1    4 1   
     3    1    5 1   
     4    1    6 1   
     5    2    3 2   
     6    2    7 1   
     7    7    8 1   
     8    7   15 1   
     9    8    9 1   
    10    8   11 1   
    11    8   16 1   
    12    9   10 2   
    13    9   19 1   
    14   11   12 1   
    15   11   17 1   
    16   11   18 1   
    17   12   13 1   
    18   12   14 1   
    19   19   20 1   
    20   19   27 1   
    21   20   21 1   
    22   20   23 1   
    23   20   28 1   
    24   21   22 2   
    25   21   38 1   
    26   23   24 1   
    27   23   25 1   
    28   23   29 1   
    29   24   26 1   
    30   24   30 1   
    31   24   31 1   
    32   25   32 1   
    33   25   33 1   
    34   25   34 1   
    35   26   35 1   
    36   26   36 1   
    37   26   37 1   
    38   38   39 1   
    39   38   46 1   
    40   39   40 1   
    41   39   42 1   
    42   39   47 1   
    43   40   41 2   
    44   40   50 1   
    45   42   43 1   
    46   42   48 1   
    47   42   49 1   
    48   43   44 1   
    49   43   45 1   
    50   50   51 1   
    51   50   54 1   
    52   51   52 1   
    53   51   55 1   
    54   51   56 1   
    55   52   53 2   
    56   52   57 1   
    57   57   58 1   
    58   57   65 1   
    59   58   59 1   
    60   58   61 1   
    61   58   66 1   
    62   59   60 2   
    63   59   69 1   
    64   61   62 1   
    65   61   67 1   
    66   61   68 1   
    67   62   63 1   
    68   62   64 1   
    69   69   70 1   
    70   69   73 1   
    71   70   71 1   
    72   70   74 1   
    73   70   75 1   
    74   71   72 2   
    75   71   76 1   
    76   76   77 1   
    77   76   85 1   
    78   77   78 1   
    79   77   80 1   
    80   77   86 1   
    81   78   79 2   
    82   78   93 1   
    83   80   81 1   
    84   80   87 1   
    85   80   88 1   
    86   81   82 1   
    87   81   89 1   
    88   81   90 1   
    89   82   83 1   
    90   82   84 2   
    91   83   91 1   
    92   83   92 1   
    93   93   94 1   
    94   93  100 1   
    95   94   95 1   
    96   94   97 1   
    97   94  101 1   
    98   95   96 2   
    99   95  109 1   
   100   97   98 1   
   101   97   99 1   
   102   97  102 1   
   103   98  103 1   
   104   98  104 1   
   105   98  105 1   
   106   99  106 1   
   107   99  107 1   
   108   99  108 1   
   109  109  110 1   
   110  109  117 1   
   111  110  111 1   
   112  110  113 1   
   113  110  118 1   
   114  111  112 2   
   115  111  123 1   
   116  113  114 1   
   117  113  119 1   
   118  113  120 1   
   119  114  115 1   
   120  114  116 2   
   121  115  121 1   
   122  115  122 1   
   123  123  124 1   
   124  123  135 1   
   125  124  125 1   
   126  124  127 1   
   127  124  136 1   
   128  125  126 2   
   129  125  144 1   
   130  127  128 1   
   131  127  137 1   
   132  127  138 1   
   133  128  129 ar  
   134  128  130 ar  
   135  129  131 ar  
   136  129  139 1   
   137  130  132 ar  
   138  130  140 1   
   139  131  133 ar  
   140  131  141 1   
   141  132  133 ar  
   142  132  142 1   
   143  133  134 1   
   144  134  143 1   
   145  144  145 1   
   146  144  153 1   
   147  145  146 1   
   148  145  148 1   
   149  145  154 1   
   150  146  147 2   
   151  146  159 1   
   152  148  149 1   
   153  148  155 1   
   154  148  156 1   
   155  149  150 1   
   156  149  157 1   
   157  149  158 1   
   158  150  151 1   
   159  150  152 1   
   160  159  160 1   
   161  159  168 1   
   162  160  161 1   
   163  160  163 1   
   164  160  169 1   
   165  161  162 2   
   166  161  174 1   
   167  163  164 1   
   168  163  170 1   
   169  163  171 1   
   170  164  165 1   
   171  164  172 1   
   172  164  173 1   
   173  165  166 1   
   174  165  167 1   
   175  174  175 1   
   176  174  179 1   
   177  175  176 1   
   178  175  177 1   
   179  175  178 1   
   180  181  182 1   
   181  181  183 1   
   182  184  185 1   
   183  184  186 1   
   184  187  188 1   
   185  187  189 1   
   186  190  191 1   
   187  190  192 1   
@<TRIPOS>SUBSTRUCTURE
     1 MOL         1 TEMP              0 ****  ****    0 ROOT
