@<TRIPOS>MOLECULE
MOL
  182   178     1     0     0
SMALL
resp


@<TRIPOS>ATOM
      1 C1          0.9660   -4.1560    5.8340 c3        1 MOL     -0.405802
      2 C2          1.0630   -3.9160    4.3320 c         1 MOL      0.779466
      3 O1          0.2580   -4.3510    3.5590 o         1 MOL     -0.608558
      4 H1          1.7990   -3.6620    6.3350 hc        1 MOL      0.107543
      5 H2          0.0250   -3.7500    6.2070 hc        1 MOL      0.107543
      6 H3          1.0060   -5.2270    6.0350 hc        1 MOL      0.107543
      7 N1          2.1590   -3.2730    4.0150 n         1 MOL     -0.524702
      8 C3          2.5690   -3.0000    2.6740 c3        1 MOL      0.017674
      9 C4          3.0650   -4.2190    1.8090 c         1 MOL      0.505767
     10 O2          3.8580   -4.9690    2.2930 o         1 MOL     -0.511785
     11 C5          3.6350   -1.8330    2.6960 c3        1 MOL     -0.255147
     12 C6          3.8250   -1.1340    1.3360 c         1 MOL      0.848886
     13 O3          3.8810    0.0980    1.3020 o         1 MOL     -0.721291
     14 O4          3.7260   -1.7180    0.2370 o         1 MOL     -0.721291
     15 H4          2.8020   -3.0290    4.7550 hn        1 MOL      0.328257
     16 H5          1.6510   -2.5990    2.2460 h1        1 MOL      0.032504
     17 H6          4.5960   -2.2630    2.9570 hc        1 MOL      0.077312
     18 H7          3.2680   -1.0870    3.4030 hc        1 MOL      0.077312
     19 N2          2.5730   -4.3810    0.5750 n         1 MOL     -0.233908
     20 C7          2.8240   -5.5130   -0.3330 c3        1 MOL     -0.113029
     21 C8          4.2430   -5.2370   -1.0400 c         1 MOL      0.454287
     22 O5          4.9650   -6.2170   -1.3160 o         1 MOL     -0.545785
     23 C9          1.6750   -5.7330   -1.3490 c3        1 MOL     -0.021510
     24 C10         0.3890   -6.1180   -0.6090 c3        1 MOL      0.099542
     25 C11        -0.8050   -5.9370   -1.5860 c3        1 MOL     -0.067624
     26 C12        -2.0650   -6.5430   -0.9400 c3        1 MOL      0.050442
     27 N3         -3.1860   -6.6130   -1.9820 n4        1 MOL     -0.258653
     28 H8          1.9660   -3.6430    0.2390 hn        1 MOL      0.176716
     29 H9          2.9910   -6.4040    0.2840 h1        1 MOL      0.134625
     30 H10         1.9460   -6.5310   -2.0380 hc        1 MOL      0.029184
     31 H11         1.4450   -4.8190   -1.9200 hc        1 MOL      0.029184
     32 H12         0.1960   -5.5280    0.2850 hc        1 MOL      0.004408
     33 H13         0.4730   -7.1500   -0.2710 hc        1 MOL      0.004408
     34 H14        -0.4510   -6.4730   -2.4690 hc        1 MOL      0.024650
     35 H15        -1.0220   -4.9030   -1.8820 hc        1 MOL      0.024650
     36 H16        -2.4560   -5.8370   -0.2050 hx        1 MOL      0.082175
     37 H17        -1.9320   -7.4740   -0.3900 hx        1 MOL      0.082175
     38 H18        -3.4880   -5.7200   -2.3380 hn        1 MOL      0.250545
     39 H19        -2.9890   -7.2310   -2.7520 hn        1 MOL      0.250545
     40 H20        -4.0230   -7.0310   -1.5850 hn        1 MOL      0.250545
     41 N4          4.7190   -4.0030   -1.1690 n         1 MOL     -0.263755
     42 C13         6.0060   -3.6270   -1.8500 c3        1 MOL      0.149353
     43 C14         7.0550   -2.9070   -0.9800 c         1 MOL      0.422992
     44 O6          8.2760   -3.0620   -1.1810 o         1 MOL     -0.560076
     45 C15         5.6060   -2.6910   -3.0090 c3        1 MOL     -0.317288
     46 C16         4.5890   -1.5710   -2.6290 c         1 MOL      0.817287
     47 O7          5.0170   -0.5230   -2.1170 o         1 MOL     -0.758165
     48 O8          3.3690   -1.8170   -2.8000 o         1 MOL     -0.758165
     49 H21         4.1070   -3.2090   -1.0000 hn        1 MOL      0.220439
     50 H22         6.4880   -4.5350   -2.2080 h1        1 MOL      0.077279
     51 H23         5.0470   -3.2770   -3.7470 hc        1 MOL      0.076633
     52 H24         6.5110   -2.3790   -3.5230 hc        1 MOL      0.076633
     53 N5          6.6180   -2.1840   -0.0040 n         1 MOL     -0.132353
     54 C17         7.5700   -1.4050    0.8720 c3        1 MOL     -0.083253
     55 C18         7.7490    0.0680    0.5060 c         1 MOL      0.449843
     56 O9          8.3150    0.8600    1.2850 o         1 MOL     -0.548917
     57 H25         5.6160   -2.0270    0.0620 hn        1 MOL      0.001312
     58 H26         8.5340   -1.9040    0.8830 h1        1 MOL      0.101939
     59 H27         7.2030   -1.4660    1.9030 h1        1 MOL      0.101939
     60 N6          7.0630    0.5910   -0.5120 n         1 MOL     -0.176823
     61 C19         7.1390    2.0260   -0.8730 c3        1 MOL      0.027271
     62 C20         5.7710    2.7840   -0.8850 c         1 MOL      0.394565
     63 O10         4.7150    2.2400   -0.5410 o         1 MOL     -0.358883
     64 C21         7.8680    2.1530   -2.2000 c3        1 MOL     -0.391768
     65 C22         7.1880    1.5570   -3.4410 c         1 MOL      0.683289
     66 N7          7.8170    0.4730   -3.9210 n         1 MOL     -0.782919
     67 O11         6.1060    1.8870   -3.8310 o         1 MOL     -0.548996
     68 H28         6.4140    0.0530   -1.0770 hn        1 MOL      0.188853
     69 H29         7.7510    2.5580   -0.1390 h1        1 MOL      0.111699
     70 H30         8.9200    1.8700   -2.1420 hc        1 MOL      0.118488
     71 H31         8.0250    3.2060   -2.4400 hc        1 MOL      0.118488
     72 H32         8.6370   -0.0090   -3.5730 hn        1 MOL      0.359004
     73 H33         7.2180   -0.1570   -4.4380 hn        1 MOL      0.359004
     74 N8          5.8210    4.0690   -1.2590 n         1 MOL     -0.373927
     75 C23         4.5580    4.9100   -1.3320 c3        1 MOL     -0.164161
     76 C24         3.7250    4.8870   -0.0610 c         1 MOL      0.583383
     77 O12         4.2930    4.8090    1.0360 o         1 MOL     -0.493898
     78 H34         6.7150    4.4310   -1.5520 hn        1 MOL      0.306283
     79 H35         4.0600    4.6390   -2.2590 h1        1 MOL      0.094146
     80 H36         4.8670    5.9510   -1.4820 h1        1 MOL      0.094146
     81 N9          2.4220    4.9010   -0.2300 n         1 MOL     -0.562675
     82 C25         1.3910    4.6430    0.8260 c3        1 MOL      0.091797
     83 C26         1.2860    3.1480    1.2030 c         1 MOL      0.806412
     84 O13         1.9760    2.3650    0.5680 o         1 MOL     -0.620311
     85 C27         0.0750    5.3040    0.3460 c3        1 MOL     -0.340622
     86 C28        -0.0860    6.8320    0.2790 ca        1 MOL      0.166799
     87 C29         0.4550    7.5810    1.2990 ca        1 MOL     -0.184242
     88 C30        -0.7260    7.4570   -0.8530 ca        1 MOL     -0.184242
     89 C31         0.3570    8.9750    1.2370 ca        1 MOL     -0.241396
     90 C32        -0.7950    8.8720   -0.9160 ca        1 MOL     -0.241396
     91 C33        -0.2150    9.6300    0.1410 ca        1 MOL      0.307392
     92 O14        -0.3200   10.9670    0.1550 oh        1 MOL     -0.444449
     93 H37         2.1390    4.8500   -1.1970 hn        1 MOL      0.323034
     94 H38         1.6810    5.1090    1.7700 h1        1 MOL      0.075685
     95 H39        -0.6860    4.9830    1.0630 hc        1 MOL      0.094706
     96 H40        -0.1680    4.8750   -0.6270 hc        1 MOL      0.094706
     97 H41         0.7760    7.0320    2.1790 ha        1 MOL      0.145110
     98 H42        -1.0770    6.8810   -1.6960 ha        1 MOL      0.145110
     99 H43         0.7520    9.6060    2.0230 ha        1 MOL      0.154419
    100 H44        -1.2600    9.3620   -1.7570 ha        1 MOL      0.154419
    101 H45         0.4320   11.2810    0.6480 ho        1 MOL      0.342947
    102 N10         0.3730    2.8260    2.1370 n         1 MOL     -0.794231
    103 C34         0.0450    1.4660    2.6940 c3        1 MOL      0.072767
    104 C35        -0.1150    0.3850    1.6520 c         1 MOL      0.653133
    105 O15         0.7710    0.0970    0.8810 o         1 MOL     -0.573312
    106 C36         1.1040    1.0780    3.8690 c3        1 MOL      0.217585
    107 C37         0.5860   -0.1530    4.6910 c3        1 MOL     -0.079240
    108 C38         1.4330    2.3850    4.7280 c3        1 MOL     -0.438969
    109 C39        -0.5480    0.0090    5.6430 c3        1 MOL     -0.374842
    110 H46        -0.0870    3.5950    2.6150 hn        1 MOL      0.392026
    111 H47        -0.9640    1.5390    3.0880 h1        1 MOL      0.032060
    112 H48         1.9930    0.7550    3.3190 hc        1 MOL      0.036826
    113 H49         1.4340   -0.4600    5.3090 hc        1 MOL      0.045846
    114 H50         0.4430   -1.0040    4.0180 hc        1 MOL      0.045846
    115 H51         1.9850    1.9920    5.5820 hc        1 MOL      0.121227
    116 H52         1.9830    3.1110    4.1280 hc        1 MOL      0.121227
    117 H53         0.5480    2.8860    5.1310 hc        1 MOL      0.121227
    118 H54        -0.9270   -0.9980    5.8540 hc        1 MOL      0.103154
    119 H55        -0.1710    0.6240    6.4580 hc        1 MOL      0.103154
    120 H56        -1.4130    0.4660    5.1610 hc        1 MOL      0.103154
    121 N11        -1.3500   -0.0960    1.5960 n         1 MOL     -0.523627
    122 C40        -1.7970   -1.0390    0.5470 c3        1 MOL      0.049958
    123 C41        -3.2510   -1.0650    0.1540 c         1 MOL      0.738550
    124 O16        -3.5140   -1.6720   -0.8350 o         1 MOL     -0.577155
    125 C42        -1.3780   -2.4230    0.9720 c3        1 MOL      0.412399
    126 O17        -1.7200   -2.8030    2.2880 oh        1 MOL     -0.663313
    127 H57        -1.9300    0.2360    2.3610 hn        1 MOL      0.288612
    128 H58        -1.2500   -0.8620   -0.3770 h1        1 MOL      0.009143
    129 H59        -0.2900   -2.3930    1.0370 h1        1 MOL     -0.085404
    130 H60        -1.7800   -3.1590    0.2810 h1        1 MOL     -0.085404
    131 H61        -1.0500   -3.4060    2.5980 ho        1 MOL      0.401811
    132 N12        -4.1020   -0.2720    0.7860 n         1 MOL     -0.754529
    133 C43        -5.5020   -0.0760    0.3540 c3        1 MOL      0.290478
    134 C44        -5.6470    0.6810   -0.9920 c         1 MOL      0.643598
    135 O18        -4.9700    1.6240   -1.3200 o         1 MOL     -0.605890
    136 C45        -6.3230    0.6950    1.3940 c3        1 MOL     -0.289531
    137 H62        -3.7590    0.1400    1.6350 hn        1 MOL      0.365203
    138 H63        -5.9140   -1.0860    0.2660 h1        1 MOL      0.061087
    139 H64        -5.6980    1.5430    1.6800 hc        1 MOL      0.089478
    140 H65        -7.1960    1.0650    0.8510 hc        1 MOL      0.089478
    141 H66        -6.6650    0.0130    2.1770 hc        1 MOL      0.089478
    142 N13        -6.4870    0.3710   -1.9070 n         1 MOL     -0.594346
    143 C46        -7.6130   -0.5770   -1.7310 c3        1 MOL      0.239462
    144 C47        -8.8310    0.0210   -2.4610 c         1 MOL      0.444558
    145 O19        -8.8230    0.3050   -3.6690 o         1 MOL     -0.553041
    146 C48        -7.2490   -1.9480   -2.2780 c3        1 MOL     -0.253614
    147 H67        -6.5050    1.0380   -2.6640 hn        1 MOL      0.344819
    148 H68        -7.8760   -0.7630   -0.6950 h1        1 MOL     -0.018911
    149 H69        -6.9810   -1.9560   -3.3340 hc        1 MOL      0.073352
    150 H70        -6.3710   -2.3500   -1.7640 hc        1 MOL      0.073352
    151 H71        -8.1200   -2.5900   -2.1700 hc        1 MOL      0.073352
    152 N14        -9.9700    0.2100   -1.8690 n         1 MOL     -0.457329
    153 C49       -10.3510   -0.2600   -0.4950 c3        1 MOL      0.005191
    154 C50        -9.9040    0.6570    0.6240 c         1 MOL      0.328104
    155 O20        -9.5900    0.1350    1.6910 o         1 MOL     -0.483430
    156 C51       -11.8450   -0.4120   -0.4810 c3        1 MOL      0.279853
    157 C52       -12.4490   -1.4740   -1.3650 c3        1 MOL     -0.259984
    158 C53       -13.9170   -1.4630   -1.0100 c         1 MOL      0.675654
    159 O21       -14.3100   -2.2620   -0.1550 o         1 MOL     -0.650932
    160 O22       -14.6920   -0.5810   -1.5100 o         1 MOL     -0.650932
    161 H72       -10.7140    0.5500   -2.4610 hn        1 MOL      0.340754
    162 H73        -9.9440   -1.2490   -0.2730 h1        1 MOL      0.084763
    163 H74       -12.2690    0.5650   -0.7430 hc        1 MOL     -0.029270
    164 H75       -12.1750   -0.5520    0.5430 hc        1 MOL     -0.029270
    165 H76       -11.9960   -2.4510   -1.1550 hc        1 MOL      0.024301
    166 H77       -12.2910   -1.1370   -2.3840 hc        1 MOL      0.024301
    167 N15        -9.8960    1.9940    0.3780 n         1 MOL     -0.240038
    168 C54        -9.3620    2.9660    1.3170 c3        1 MOL     -0.269501
    169 H78        -8.3370    3.2140    1.0390 h1        1 MOL      0.119538
    170 H79        -9.9720    3.8680    1.2930 h1        1 MOL      0.119538
    171 H80        -9.3730    2.5450    2.3220 h1        1 MOL      0.119538
    172 H81       -10.3900    2.3610   -0.4170 hn        1 MOL      0.254783
    173 Ca1         2.8300    0.3550   -1.0680 Ca        1 MOL      1.789723
    174 O23         2.8760    2.3250   -3.0630 oh        1 MOL     -0.849813
    175 H82         2.7770    3.2470   -3.2790 ho        1 MOL      0.419853
    176 H83         3.3580    1.9630   -3.8130 ho        1 MOL      0.419853
    177 O24         0.7020    0.2730   -2.8650 oh        1 MOL     -0.849813
    178 H84         0.0850   -0.4280   -3.0550 ho        1 MOL      0.419853
    179 H85         0.2670    1.0730   -3.1400 ho        1 MOL      0.419853
    180 O25         1.0900   -2.0500   -1.4270 oh        1 MOL     -0.849813
    181 H86         1.8360   -2.1330   -2.0140 ho        1 MOL      0.419853
    182 H87         0.3290   -2.3100   -1.9490 ho        1 MOL      0.419853
@<TRIPOS>BOND
     1    1    2 1   
     2    1    4 1   
     3    1    5 1   
     4    1    6 1   
     5    2    3 2   
     6    2    7 1   
     7    7    8 1   
     8    7   15 1   
     9    8    9 1   
    10    8   11 1   
    11    8   16 1   
    12    9   10 2   
    13    9   19 1   
    14   11   12 1   
    15   11   17 1   
    16   11   18 1   
    17   12   13 1   
    18   12   14 1   
    19   19   20 1   
    20   19   28 1   
    21   20   21 1   
    22   20   23 1   
    23   20   29 1   
    24   21   22 2   
    25   21   41 1   
    26   23   24 1   
    27   23   30 1   
    28   23   31 1   
    29   24   25 1   
    30   24   32 1   
    31   24   33 1   
    32   25   26 1   
    33   25   34 1   
    34   25   35 1   
    35   26   27 1   
    36   26   36 1   
    37   26   37 1   
    38   27   38 1   
    39   27   39 1   
    40   27   40 1   
    41   41   42 1   
    42   41   49 1   
    43   42   43 1   
    44   42   45 1   
    45   42   50 1   
    46   43   44 2   
    47   43   53 1   
    48   45   46 1   
    49   45   51 1   
    50   45   52 1   
    51   46   47 1   
    52   46   48 1   
    53   53   54 1   
    54   53   57 1   
    55   54   55 1   
    56   54   58 1   
    57   54   59 1   
    58   55   56 2   
    59   55   60 1   
    60   60   61 1   
    61   60   68 1   
    62   61   62 1   
    63   61   64 1   
    64   61   69 1   
    65   62   63 2   
    66   62   74 1   
    67   64   65 1   
    68   64   70 1   
    69   64   71 1   
    70   65   66 1   
    71   65   67 2   
    72   66   72 1   
    73   66   73 1   
    74   74   75 1   
    75   74   78 1   
    76   75   76 1   
    77   75   79 1   
    78   75   80 1   
    79   76   77 2   
    80   76   81 1   
    81   81   82 1   
    82   81   93 1   
    83   82   83 1   
    84   82   85 1   
    85   82   94 1   
    86   83   84 2   
    87   83  102 1   
    88   85   86 1   
    89   85   95 1   
    90   85   96 1   
    91   86   87 ar  
    92   86   88 ar  
    93   87   89 ar  
    94   87   97 1   
    95   88   90 ar  
    96   88   98 1   
    97   89   91 ar  
    98   89   99 1   
    99   90   91 ar  
   100   90  100 1   
   101   91   92 1   
   102   92  101 1   
   103  102  103 1   
   104  102  110 1   
   105  103  104 1   
   106  103  106 1   
   107  103  111 1   
   108  104  105 2   
   109  104  121 1   
   110  106  107 1   
   111  106  108 1   
   112  106  112 1   
   113  107  109 1   
   114  107  113 1   
   115  107  114 1   
   116  108  115 1   
   117  108  116 1   
   118  108  117 1   
   119  109  118 1   
   120  109  119 1   
   121  109  120 1   
   122  121  122 1   
   123  121  127 1   
   124  122  123 1   
   125  122  125 1   
   126  122  128 1   
   127  123  124 2   
   128  123  132 1   
   129  125  126 1   
   130  125  129 1   
   131  125  130 1   
   132  126  131 1   
   133  132  133 1   
   134  132  137 1   
   135  133  134 1   
   136  133  136 1   
   137  133  138 1   
   138  134  135 2   
   139  134  142 1   
   140  136  139 1   
   141  136  140 1   
   142  136  141 1   
   143  142  143 1   
   144  142  147 1   
   145  143  144 1   
   146  143  146 1   
   147  143  148 1   
   148  144  145 2   
   149  144  152 1   
   150  146  149 1   
   151  146  150 1   
   152  146  151 1   
   153  152  153 1   
   154  152  161 1   
   155  153  154 1   
   156  153  156 1   
   157  153  162 1   
   158  154  155 2   
   159  154  167 1   
   160  156  157 1   
   161  156  163 1   
   162  156  164 1   
   163  157  158 1   
   164  157  165 1   
   165  157  166 1   
   166  158  159 1   
   167  158  160 1   
   168  167  168 1   
   169  167  172 1   
   170  168  169 1   
   171  168  170 1   
   172  168  171 1   
   173  174  175 1   
   174  174  176 1   
   175  177  178 1   
   176  177  179 1   
   177  180  181 1   
   178  180  182 1   
@<TRIPOS>SUBSTRUCTURE
     1 MOL         1 TEMP              0 ****  ****    0 ROOT
