@<TRIPOS>MOLECULE
MOL
  195   189     1     0     0
SMALL
resp


@<TRIPOS>ATOM
      1 C1          1.2810    3.8250    3.5620 c3        1 MOL     -0.449223
      2 C2          0.6840    4.1440    2.1920 c         1 MOL      0.892790
      3 O1         -0.0530    3.3000    1.6590 o         1 MOL     -0.561607
      4 H1          1.2280    4.7110    4.1950 hc        1 MOL      0.094526
      5 H2          0.7170    3.0150    4.0240 hc        1 MOL      0.094526
      6 H3          2.3220    3.5240    3.4450 hc        1 MOL      0.094526
      7 N1          0.9490    5.3020    1.6090 n         1 MOL     -0.656248
      8 C3          0.3840    5.6470    0.2530 c3        1 MOL      0.021634
      9 C4         -1.1450    5.5500    0.1910 c         1 MOL      0.749502
     10 O2         -1.6540    5.0360   -0.8700 o         1 MOL     -0.577077
     11 C5          1.0710    4.8910   -0.8340 c3        1 MOL     -0.232391
     12 C6          2.6030    5.1040   -0.7070 c         1 MOL      0.822319
     13 O3          3.1050    6.2350   -0.7130 o         1 MOL     -0.808463
     14 O4          3.3400    4.1080   -0.5060 o         1 MOL     -0.808463
     15 H4          1.3610    6.0700    2.1230 hn        1 MOL      0.298771
     16 H5          0.4830    6.7290    0.1290 h1        1 MOL      0.078869
     17 H6          0.8170    5.3550   -1.7820 hc        1 MOL      0.098513
     18 H7          0.7820    3.8350   -0.8820 hc        1 MOL      0.098513
     19 N2         -1.9210    5.9930    1.1940 n         1 MOL     -0.715194
     20 C7         -3.4080    6.0170    1.2910 c3        1 MOL     -0.064295
     21 C8         -4.1240    6.8200    0.2020 c         1 MOL      0.531655
     22 O5         -3.6640    7.9130   -0.3020 o         1 MOL     -0.568617
     23 C9         -3.9020    6.5920    2.6840 c3        1 MOL      0.059284
     24 C10        -3.1150    7.8970    3.1070 c3        1 MOL      0.184922
     25 C11        -3.7530    5.4860    3.8090 c3        1 MOL      0.019626
     26 C12        -3.6680    8.6600    4.3470 c3        1 MOL     -0.454401
     27 H8         -1.4810    6.1650    2.0930 hn        1 MOL      0.335029
     28 H9         -3.7040    4.9720    1.2000 h1        1 MOL      0.193958
     29 H10        -4.9590    6.8490    2.7070 hc        1 MOL      0.057197
     30 H11        -3.2750    8.6150    2.3050 hc        1 MOL     -0.029397
     31 H12        -2.0420    7.7570    3.1290 hc        1 MOL     -0.029397
     32 H13        -4.1560    5.7680    4.7740 hc        1 MOL     -0.023600
     33 H14        -4.3620    4.6590    3.4550 hc        1 MOL     -0.023600
     34 H15        -2.7240    5.1390    3.9660 hc        1 MOL     -0.023600
     35 H16        -4.7310    8.8110    4.1530 hc        1 MOL      0.108983
     36 H17        -3.4250    8.0320    5.2050 hc        1 MOL      0.108983
     37 H18        -3.2950    9.6800    4.4660 hc        1 MOL      0.108983
     38 N3         -5.2890    6.3480   -0.2990 n         1 MOL     -0.423667
     39 C13        -5.9310    5.1020    0.1320 c3        1 MOL     -0.136302
     40 C14        -5.2940    3.8130   -0.4250 c         1 MOL      0.508844
     41 O6         -5.3720    2.7460    0.2450 o         1 MOL     -0.558866
     42 C15        -7.4800    5.0930   -0.1970 c3        1 MOL     -0.123330
     43 C16        -8.1160    6.4660    0.0220 c         1 MOL      0.710924
     44 O7         -8.4650    6.8280    1.2020 o         1 MOL     -0.729002
     45 O8         -8.2980    7.1480   -0.9960 o         1 MOL     -0.729002
     46 H19        -5.7970    6.7510   -1.0770 hn        1 MOL      0.309011
     47 H20        -5.9310    5.1310    1.2170 h1        1 MOL      0.113305
     48 H21        -7.8990    4.4340    0.5670 hc        1 MOL      0.029777
     49 H22        -7.7750    4.8120   -1.2150 hc        1 MOL      0.029777
     50 N4         -4.5600    4.0460   -1.5220 n         1 MOL     -0.284686
     51 C17        -3.8940    2.8630   -2.2050 c3        1 MOL     -0.224946
     52 C18        -4.8890    1.9860   -2.8490 c         1 MOL      0.600489
     53 O9         -5.9560    2.3740   -3.2690 o         1 MOL     -0.581017
     54 H23        -4.6160    4.9180   -2.0310 hn        1 MOL      0.298632
     55 H24        -3.2140    2.2900   -1.5780 h1        1 MOL      0.129605
     56 H25        -3.2300    3.1320   -3.0300 h1        1 MOL      0.129605
     57 N5         -4.5590    0.7210   -2.8180 n         1 MOL     -0.445296
     58 C19        -5.5260   -0.4370   -3.1750 c3        1 MOL      0.118042
     59 C20        -6.2540   -1.1390   -1.9760 c         1 MOL      0.380853
     60 O10        -7.2840   -1.7090   -2.0530 o         1 MOL     -0.506449
     61 C21        -4.7510   -1.5010   -3.9360 c3        1 MOL     -0.302538
     62 C22        -3.5170   -2.0140   -3.2610 c         1 MOL      0.746673
     63 O11        -3.5570   -3.0150   -2.5510 o         1 MOL     -0.696118
     64 O12        -2.4470   -1.2790   -3.3570 o         1 MOL     -0.696118
     65 H26        -3.6050    0.4970   -2.5380 hn        1 MOL      0.242766
     66 H27        -6.3040    0.0200   -3.7760 h1        1 MOL      0.092665
     67 H28        -4.3630   -1.0100   -4.8250 hc        1 MOL      0.045815
     68 H29        -5.4120   -2.2980   -4.2750 hc        1 MOL      0.045815
     69 N6         -5.7910   -0.9340   -0.7210 n         1 MOL     -0.107471
     70 C23        -6.2790   -1.5440    0.5110 c3        1 MOL     -0.288016
     71 C24        -6.2350   -3.0750    0.5700 c         1 MOL      0.477332
     72 O13        -6.8700   -3.6000    1.5050 o         1 MOL     -0.546617
     73 H30        -4.9600   -0.3530   -0.6560 hn        1 MOL      0.203172
     74 H31        -7.3250   -1.3050    0.7050 h1        1 MOL      0.129610
     75 H32        -5.7550   -1.0800    1.3470 h1        1 MOL      0.129610
     76 N7         -5.6160   -3.7670   -0.4020 n         1 MOL     -0.132400
     77 C25        -5.3050   -5.2050   -0.5370 c3        1 MOL      0.074004
     78 C26        -4.9610   -5.9050    0.7960 c         1 MOL      0.321349
     79 O14        -5.1790   -7.0890    0.8980 o         1 MOL     -0.515044
     80 C27        -6.3750   -5.9420   -1.4350 c3        1 MOL     -0.027728
     81 C28        -6.7470   -5.2220   -2.7660 c3        1 MOL     -0.069409
     82 C29        -7.6710   -6.0630   -3.6920 c         1 MOL      0.616685
     83 N8         -7.7940   -5.5680   -4.9200 n         1 MOL     -0.794829
     84 O15        -8.2500   -7.1060   -3.3580 o         1 MOL     -0.569384
     85 H33        -4.9600   -3.2480   -0.9740 hn        1 MOL      0.125818
     86 H34        -4.4020   -5.2110   -1.1430 h1        1 MOL      0.102114
     87 H35        -7.2870   -6.0910   -0.8510 hc        1 MOL      0.024669
     88 H36        -6.0580   -6.9510   -1.6860 hc        1 MOL      0.024669
     89 H37        -5.7320   -5.0800   -3.1300 hc        1 MOL      0.034601
     90 H38        -7.2560   -4.2740   -2.6170 hc        1 MOL      0.034601
     91 H39        -7.4360   -4.6620   -5.1650 hn        1 MOL      0.351985
     92 H40        -8.1090   -6.2500   -5.5960 hn        1 MOL      0.351985
     93 N9         -4.3030   -5.2920    1.7570 n         1 MOL     -0.154215
     94 C30        -3.8340   -5.8500    3.0680 c3        1 MOL     -0.227166
     95 C31        -2.3200   -5.5830    3.1410 c         1 MOL      0.616176
     96 O16        -1.7160   -5.9390    4.1710 o         1 MOL     -0.589399
     97 C32        -4.6160   -5.2460    4.2420 c3        1 MOL      0.325022
     98 C33        -4.3770   -3.7270    4.3090 c3        1 MOL     -0.191730
     99 C34        -6.1060   -5.6430    4.2300 c3        1 MOL     -0.191730
    100 H41        -4.0810   -4.3280    1.5740 hn        1 MOL      0.225527
    101 H42        -3.9670   -6.9290    3.0590 h1        1 MOL      0.126734
    102 H43        -4.2340   -5.6910    5.1590 hc        1 MOL     -0.061617
    103 H44        -4.9830   -3.4170    3.4490 hc        1 MOL      0.035254
    104 H45        -4.6880   -3.3200    5.2740 hc        1 MOL      0.035254
    105 H46        -3.3160   -3.5330    4.1680 hc        1 MOL      0.035254
    106 H47        -6.3410   -6.7080    4.3150 hc        1 MOL      0.035254
    107 H48        -6.6070   -5.2780    5.1260 hc        1 MOL      0.035254
    108 H49        -6.5900   -5.1080    3.4100 hc        1 MOL      0.035254
    109 N10        -1.6190   -4.9720    2.1920 n         1 MOL     -0.447341
    110 C35        -0.2530   -4.5450    2.3320 c3        1 MOL      0.227810
    111 C36         0.4690   -4.4350    0.9530 c         1 MOL      0.419665
    112 O17        -0.0610   -4.7970   -0.0910 o         1 MOL     -0.464701
    113 C37        -0.2110   -3.2400    3.1630 c3        1 MOL     -0.361961
    114 C38        -0.9130   -2.0260    2.5990 c         1 MOL      0.636788
    115 N11        -1.3440   -1.1110    3.3730 n         1 MOL     -0.743624
    116 O18        -0.9230   -1.8130    1.4080 o         1 MOL     -0.483659
    117 H50        -2.1320   -4.7120    1.3640 hn        1 MOL      0.208552
    118 H51         0.3320   -5.2340    2.9480 h1        1 MOL      0.055334
    119 H52         0.8170   -3.0020    3.4700 hc        1 MOL      0.098460
    120 H53        -0.6780   -3.4950    4.1160 hc        1 MOL      0.098460
    121 H54        -1.2580   -1.1830    4.3840 hn        1 MOL      0.343110
    122 H55        -1.4160   -0.2020    2.9400 hn        1 MOL      0.343110
    123 N12         1.6900   -3.8570    0.9510 n         1 MOL     -0.424051
    124 C39         2.6060   -3.7960   -0.1860 c3        1 MOL      0.057991
    125 C40         4.1060   -3.6810    0.1240 c         1 MOL      0.406998
    126 O19         4.4090   -2.9770    1.1200 o         1 MOL     -0.585039
    127 C41         2.0270   -2.6100   -1.0190 c3        1 MOL     -0.380884
    128 C42         3.0890   -2.1350   -2.0030 ca        1 MOL      0.164218
    129 C43         3.6630   -0.8760   -1.8690 ca        1 MOL     -0.194454
    130 C44         3.4690   -2.9890   -3.0580 ca        1 MOL     -0.194454
    131 C45         4.6330   -0.4160   -2.7370 ca        1 MOL     -0.246382
    132 C46         4.5370   -2.5780   -3.8850 ca        1 MOL     -0.246382
    133 C47         5.1630   -1.3140   -3.7950 ca        1 MOL      0.284478
    134 O20         6.2460   -0.9210   -4.5580 oh        1 MOL     -0.520423
    135 H56         2.0480   -3.6130    1.8660 hn        1 MOL      0.275227
    136 H57         2.5550   -4.7780   -0.6660 h1        1 MOL      0.070293
    137 H58         1.8760   -1.7330   -0.3950 hc        1 MOL      0.193714
    138 H59         1.1170   -2.9590   -1.5120 hc        1 MOL      0.193714
    139 H60         3.3820   -0.1120   -1.1650 ha        1 MOL      0.149276
    140 H61         3.1390   -4.0190   -3.1320 ha        1 MOL      0.149276
    141 H62         5.0910    0.5540   -2.5560 ha        1 MOL      0.150641
    142 H63         4.9320   -3.3850   -4.4760 ha        1 MOL      0.150641
    143 H64         6.3900    0.0160   -4.4320 ho        1 MOL      0.385527
    144 N13         5.0700   -4.4200   -0.4860 n         1 MOL     -0.142796
    145 C48         6.4540   -4.3940   -0.0020 c3        1 MOL      0.045042
    146 C49         7.2930   -3.7330   -1.1220 c         1 MOL      0.412411
    147 O21         7.4960   -4.2840   -2.1680 o         1 MOL     -0.517775
    148 C50         6.8270   -5.8430    0.2140 c3        1 MOL      0.005517
    149 C51         5.9420   -6.4930    1.2190 c3        1 MOL     -0.193899
    150 C52         6.4120   -7.9570    1.3330 c         1 MOL      0.659538
    151 O22         6.0110   -8.8270    0.4500 o         1 MOL     -0.696443
    152 O23         6.9800   -8.3110    2.4080 o         1 MOL     -0.696443
    153 H65         4.6910   -5.0490   -1.1890 hn        1 MOL      0.226604
    154 H66         6.5220   -3.8350    0.9300 h1        1 MOL      0.109557
    155 H67         7.8630   -5.9000    0.5530 hc        1 MOL      0.005904
    156 H68         6.8930   -6.2570   -0.7920 hc        1 MOL      0.005904
    157 H69         4.9630   -6.3940    0.7470 hc        1 MOL      0.028079
    158 H70         6.0240   -5.9020    2.1260 hc        1 MOL      0.028079
    159 N14         7.4340   -2.4000   -1.1960 n         1 MOL     -0.329589
    160 C53         6.9460   -1.4160   -0.2440 c3        1 MOL     -0.117778
    161 C54         7.4440   -1.5800    1.2240 c         1 MOL      0.544829
    162 O24         8.5400   -2.2070    1.3760 o         1 MOL     -0.570540
    163 C55         7.5850   -0.1090   -0.7980 c3        1 MOL      0.266358
    164 C56         7.3460    1.1740    0.0500 c3        1 MOL     -0.402372
    165 C57         7.5810    2.4450   -0.7270 c         1 MOL      0.886034
    166 O25         8.7480    2.8360   -1.0140 o         1 MOL     -0.750296
    167 O26         6.6260    3.1190   -1.1320 o         1 MOL     -0.750296
    168 H71         8.0400   -2.0300   -1.9180 hn        1 MOL      0.270514
    169 H72         5.8690   -1.3010   -0.3900 h1        1 MOL      0.098587
    170 H73         7.1180    0.0740   -1.7720 hc        1 MOL     -0.058114
    171 H74         8.6410   -0.3000   -0.9690 hc        1 MOL     -0.058114
    172 H75         7.9900    1.0720    0.9200 hc        1 MOL      0.055703
    173 H76         6.3190    1.1970    0.4120 hc        1 MOL      0.055703
    174 N15         6.7510   -1.1460    2.2730 n         1 MOL     -0.241978
    175 C58         7.1630   -1.3640    3.6930 c3        1 MOL     -0.079970
    176 H77         7.4270   -0.4080    4.1450 h1        1 MOL      0.059640
    177 H78         6.3370   -1.8120    4.2460 h1        1 MOL      0.059640
    178 H79         8.0260   -2.0310    3.7240 h1        1 MOL      0.059640
    179 H80         5.9400   -0.5650    2.0980 hn        1 MOL      0.231065
    180 Ca1         5.6980    5.4280   -0.4420 Ca        1 MOL      1.724885
    181 O27         6.6240    7.8490   -1.0480 oh        1 MOL     -0.834869
    182 H81         7.4890    8.1000   -1.3720 ho        1 MOL      0.400836
    183 H82         6.0540    8.5760   -1.3030 ho        1 MOL      0.400836
    184 O28         5.0010    5.5220   -3.0350 oh        1 MOL     -0.834869
    185 H83         5.3240    5.2620   -3.8960 ho        1 MOL      0.400836
    186 H84         4.2450    6.0830   -3.2280 ho        1 MOL      0.400836
    187 O29         5.7930    3.7200    1.7380 oh        1 MOL     -0.834869
    188 H85         6.6270    3.5270    2.1550 ho        1 MOL      0.400836
    189 H86         5.1350    3.4480    2.3740 ho        1 MOL      0.400836
    190 O30         8.2880    5.4450   -1.8560 oh        1 MOL     -0.834869
    191 H87         8.7410    4.6010   -1.8560 ho        1 MOL      0.400836
    192 H88         8.3280    5.7370   -2.7700 ho        1 MOL      0.400836
    193 O31         7.6960    6.0600    1.0410 oh        1 MOL     -0.834869
    194 H89         7.4740    6.4770    1.8700 ho        1 MOL      0.400836
    195 H90         8.6460    6.1610    0.9550 ho        1 MOL      0.400836
@<TRIPOS>BOND
     1    1    2 1   
     2    1    4 1   
     3    1    5 1   
     4    1    6 1   
     5    2    3 2   
     6    2    7 1   
     7    7    8 1   
     8    7   15 1   
     9    8    9 1   
    10    8   11 1   
    11    8   16 1   
    12    9   10 2   
    13    9   19 1   
    14   11   12 1   
    15   11   17 1   
    16   11   18 1   
    17   12   13 1   
    18   12   14 1   
    19   19   20 1   
    20   19   27 1   
    21   20   21 1   
    22   20   23 1   
    23   20   28 1   
    24   21   22 2   
    25   21   38 1   
    26   23   24 1   
    27   23   25 1   
    28   23   29 1   
    29   24   26 1   
    30   24   30 1   
    31   24   31 1   
    32   25   32 1   
    33   25   33 1   
    34   25   34 1   
    35   26   35 1   
    36   26   36 1   
    37   26   37 1   
    38   38   39 1   
    39   38   46 1   
    40   39   40 1   
    41   39   42 1   
    42   39   47 1   
    43   40   41 2   
    44   40   50 1   
    45   42   43 1   
    46   42   48 1   
    47   42   49 1   
    48   43   44 1   
    49   43   45 1   
    50   50   51 1   
    51   50   54 1   
    52   51   52 1   
    53   51   55 1   
    54   51   56 1   
    55   52   53 2   
    56   52   57 1   
    57   57   58 1   
    58   57   65 1   
    59   58   59 1   
    60   58   61 1   
    61   58   66 1   
    62   59   60 2   
    63   59   69 1   
    64   61   62 1   
    65   61   67 1   
    66   61   68 1   
    67   62   63 1   
    68   62   64 1   
    69   69   70 1   
    70   69   73 1   
    71   70   71 1   
    72   70   74 1   
    73   70   75 1   
    74   71   72 2   
    75   71   76 1   
    76   76   77 1   
    77   76   85 1   
    78   77   78 1   
    79   77   80 1   
    80   77   86 1   
    81   78   79 2   
    82   78   93 1   
    83   80   81 1   
    84   80   87 1   
    85   80   88 1   
    86   81   82 1   
    87   81   89 1   
    88   81   90 1   
    89   82   83 1   
    90   82   84 2   
    91   83   91 1   
    92   83   92 1   
    93   93   94 1   
    94   93  100 1   
    95   94   95 1   
    96   94   97 1   
    97   94  101 1   
    98   95   96 2   
    99   95  109 1   
   100   97   98 1   
   101   97   99 1   
   102   97  102 1   
   103   98  103 1   
   104   98  104 1   
   105   98  105 1   
   106   99  106 1   
   107   99  107 1   
   108   99  108 1   
   109  109  110 1   
   110  109  117 1   
   111  110  111 1   
   112  110  113 1   
   113  110  118 1   
   114  111  112 2   
   115  111  123 1   
   116  113  114 1   
   117  113  119 1   
   118  113  120 1   
   119  114  115 1   
   120  114  116 2   
   121  115  121 1   
   122  115  122 1   
   123  123  124 1   
   124  123  135 1   
   125  124  125 1   
   126  124  127 1   
   127  124  136 1   
   128  125  126 2   
   129  125  144 1   
   130  127  128 1   
   131  127  137 1   
   132  127  138 1   
   133  128  129 ar  
   134  128  130 ar  
   135  129  131 ar  
   136  129  139 1   
   137  130  132 ar  
   138  130  140 1   
   139  131  133 ar  
   140  131  141 1   
   141  132  133 ar  
   142  132  142 1   
   143  133  134 1   
   144  134  143 1   
   145  144  145 1   
   146  144  153 1   
   147  145  146 1   
   148  145  148 1   
   149  145  154 1   
   150  146  147 2   
   151  146  159 1   
   152  148  149 1   
   153  148  155 1   
   154  148  156 1   
   155  149  150 1   
   156  149  157 1   
   157  149  158 1   
   158  150  151 1   
   159  150  152 1   
   160  159  160 1   
   161  159  168 1   
   162  160  161 1   
   163  160  163 1   
   164  160  169 1   
   165  161  162 2   
   166  161  174 1   
   167  163  164 1   
   168  163  170 1   
   169  163  171 1   
   170  164  165 1   
   171  164  172 1   
   172  164  173 1   
   173  165  166 1   
   174  165  167 1   
   175  174  175 1   
   176  174  179 1   
   177  175  176 1   
   178  175  177 1   
   179  175  178 1   
   180  181  182 1   
   181  181  183 1   
   182  184  185 1   
   183  184  186 1   
   184  187  188 1   
   185  187  189 1   
   186  190  191 1   
   187  190  192 1   
   188  193  194 1   
   189  193  195 1   
@<TRIPOS>SUBSTRUCTURE
     1 MOL         1 TEMP              0 ****  ****    0 ROOT
