@<TRIPOS>MOLECULE
MOL
  184   179     1     0     0
SMALL
resp


@<TRIPOS>ATOM
      1 C1         -4.7230   -6.3710   -3.0220 c3        1 MOL     -0.348002
      2 C2         -4.9120   -4.9230   -2.6620 c         1 MOL      0.702078
      3 O1         -4.5400   -3.9800   -3.4050 o         1 MOL     -0.569813
      4 H1         -5.6970   -6.8450   -3.1420 hc        1 MOL      0.079305
      5 H2         -4.1660   -6.4430   -3.9560 hc        1 MOL      0.079305
      6 H3         -4.1700   -6.8740   -2.2280 hc        1 MOL      0.079305
      7 N1         -5.5500   -4.6510   -1.5280 n         1 MOL     -0.380102
      8 C3         -6.3420   -5.4820   -0.6730 c3        1 MOL     -0.118342
      9 C4         -6.1460   -5.1240    0.7720 c         1 MOL      0.524532
     10 O2         -4.9940   -4.8080    1.1690 o         1 MOL     -0.451183
     11 C5         -7.7690   -5.3290   -1.1970 c3        1 MOL     -0.022671
     12 C6         -8.2450   -3.8480   -1.2580 c         1 MOL      0.574453
     13 O3         -8.6200   -3.4190   -0.1590 o         1 MOL     -0.622005
     14 O4         -8.1970   -3.1870   -2.3440 o         1 MOL     -0.622005
     15 H4         -5.6360   -3.6720   -1.2950 hn        1 MOL      0.253417
     16 H5         -6.0840   -6.5420   -0.7940 h1        1 MOL      0.106152
     17 H6         -8.4540   -5.8510   -0.5280 hc        1 MOL     -0.027939
     18 H7         -7.8160   -5.7060   -2.2150 hc        1 MOL     -0.027939
     19 N2         -7.1840   -5.1850    1.6320 n         1 MOL     -0.527905
     20 C7         -7.1180   -4.7920    3.0730 c3        1 MOL      0.388860
     21 C8         -6.5560   -3.3670    3.2140 c         1 MOL      0.214880
     22 O5         -5.8300   -3.0940    4.1740 o         1 MOL     -0.493370
     23 C9         -6.4140   -5.8600    3.8800 c3        1 MOL     -0.262293
     24 H8         -8.1320   -5.3210    1.3290 hn        1 MOL      0.298520
     25 H9         -8.1340   -4.8120    3.4560 h1        1 MOL     -0.001509
     26 H10        -5.3360   -5.8250    3.8470 hc        1 MOL      0.061679
     27 H11        -6.8000   -5.8410    4.8990 hc        1 MOL      0.061679
     28 H12        -6.7150   -6.8470    3.5070 hc        1 MOL      0.061679
     29 N3         -6.8840   -2.5400    2.2180 n         1 MOL      0.032948
     30 C10        -6.6000   -1.1080    2.1380 c3        1 MOL      0.011937
     31 C11        -7.9020   -0.2510    1.9880 c         1 MOL      0.244551
     32 O6         -8.8310   -0.6140    1.2460 o         1 MOL     -0.534006
     33 C12        -5.4470   -0.7040    1.1720 c3        1 MOL      0.050834
     34 C13        -5.6790   -1.3000   -0.2730 c         1 MOL      0.641136
     35 O7         -6.7670   -1.1250   -0.8640 o         1 MOL     -0.644357
     36 O8         -4.7850   -1.9150   -0.8550 o         1 MOL     -0.644357
     37 H13        -7.4500   -2.9310    1.4780 hn        1 MOL     -0.042258
     38 H14        -6.1440   -0.8240    3.0850 h1        1 MOL      0.018958
     39 H15        -4.4970   -1.1300    1.4970 hc        1 MOL     -0.001772
     40 H16        -5.4420    0.3830    1.0830 hc        1 MOL     -0.001772
     41 N4         -7.9110    0.9490    2.4850 n         1 MOL     -0.050314
     42 C14        -8.8900    1.9910    2.1790 c3        1 MOL     -0.477521
     43 C15        -8.3390    3.2210    1.5120 c         1 MOL      0.599383
     44 O9         -9.0800    4.0390    1.0240 o         1 MOL     -0.524359
     45 H17        -7.2000    1.2060    3.1510 hn        1 MOL      0.202167
     46 H18        -9.2510    2.2740    3.1610 h1        1 MOL      0.188186
     47 H19        -9.6700    1.7000    1.4710 h1        1 MOL      0.188186
     48 N5         -6.9750    3.4230    1.5350 n         1 MOL     -0.306622
     49 C16        -6.1440    4.4850    1.0510 c3        1 MOL     -0.102896
     50 C17        -4.7390    4.0060    0.6430 c         1 MOL      0.730410
     51 O10        -4.3220    2.9150    1.0970 o         1 MOL     -0.480553
     52 C18        -6.0180    5.5490    2.2280 c3        1 MOL     -0.430448
     53 C19        -7.2630    6.3770    2.3350 c         1 MOL      0.721571
     54 N6         -7.8480    6.4620    3.5270 n         1 MOL     -0.767066
     55 O11        -7.6840    7.0850    1.3940 o         1 MOL     -0.549848
     56 H20        -6.4330    2.6610    1.9090 hn        1 MOL      0.222380
     57 H21        -6.6120    5.0490    0.2510 h1        1 MOL      0.099054
     58 H22        -5.2430    6.2530    1.9120 hc        1 MOL      0.131367
     59 H23        -5.6620    5.0400    3.1290 hc        1 MOL      0.131367
     60 H24        -7.4690    5.9270    4.2930 hn        1 MOL      0.351763
     61 H25        -8.7110    6.9590    3.6810 hn        1 MOL      0.351763
     62 N7         -4.0830    4.9280   -0.1280 n         1 MOL     -0.654762
     63 C20        -2.7770    4.6700   -0.6580 c3        1 MOL      0.068187
     64 C21        -1.7520    5.2820    0.3570 c         1 MOL      0.618369
     65 O12        -2.1070    5.8960    1.3870 o         1 MOL     -0.574153
     66 H26        -4.4830    5.8550   -0.1970 hn        1 MOL      0.371161
     67 H27        -2.5900    5.0450   -1.6610 h1        1 MOL      0.047850
     68 H28        -2.6220    3.5940   -0.5610 h1        1 MOL      0.047850
     69 N8         -0.4370    5.1100    0.1560 n         1 MOL     -0.528641
     70 C22         0.1990    4.7050   -1.1080 c3        1 MOL     -0.010957
     71 C23         1.3740    3.7960   -0.7560 c         1 MOL      0.541864
     72 O13         1.9850    3.8610    0.2880 o         1 MOL     -0.550281
     73 C24         0.8500    5.9510   -1.8260 c3        1 MOL      0.418660
     74 C25         1.2960    5.7920   -3.3220 c3        1 MOL     -0.258358
     75 O14        -0.0660    6.9290   -1.8290 oh        1 MOL     -0.651068
     76 H29         0.1540    5.4240    0.9050 hn        1 MOL      0.319716
     77 H30        -0.5550    4.2940   -1.7900 h1        1 MOL      0.078761
     78 H31         1.6780    6.3450   -1.2440 h1        1 MOL     -0.009172
     79 H32         0.3400    7.6880   -1.3920 ho        1 MOL      0.395774
     80 H33         0.5190    5.3400   -3.9450 hc        1 MOL      0.065716
     81 H34         1.4060    6.7820   -3.7560 hc        1 MOL      0.065716
     82 H35         2.2570    5.2840   -3.4540 hc        1 MOL      0.065716
     83 N9          1.6560    2.8360   -1.6100 n         1 MOL     -0.297662
     84 C26         2.8750    1.9570   -1.5150 c3        1 MOL     -0.009608
     85 C27         4.0720    2.4490   -2.3890 c         1 MOL      0.468890
     86 O15         3.8160    2.8770   -3.5540 o         1 MOL     -0.583486
     87 C28         2.4680    0.5460   -1.9520 c3        1 MOL      0.133898
     88 C29         1.2700   -0.1400   -1.2070 c3        1 MOL     -0.205526
     89 C30         3.7290   -0.2980   -1.6060 c3        1 MOL     -0.152369
     90 C31        -0.0900   -0.0140   -1.8190 c3        1 MOL      0.071176
     91 H36         0.9900    2.6580   -2.3500 hn        1 MOL      0.171066
     92 H37         3.2670    1.8010   -0.5090 h1        1 MOL      0.128153
     93 H38         2.3100    0.3880   -3.0200 hc        1 MOL      0.005766
     94 H39         1.2300    0.3900   -0.2600 hc        1 MOL      0.067628
     95 H40         1.3520   -1.2230   -1.1230 hc        1 MOL      0.067628
     96 H41         3.6430   -1.2900   -2.0400 hc        1 MOL      0.035874
     97 H42         4.5930    0.1470   -2.1000 hc        1 MOL      0.035874
     98 H43         3.9710   -0.2980   -0.5440 hc        1 MOL      0.035874
     99 H44        -0.8860   -0.5160   -1.2760 hc        1 MOL     -0.013399
    100 H45        -0.4200    1.0210   -1.8690 hc        1 MOL     -0.013399
    101 H46        -0.1280   -0.3920   -2.8410 hc        1 MOL     -0.013399
    102 N10         5.3030    2.6290   -1.8720 n         1 MOL     -0.390615
    103 C32         5.9080    2.3800   -0.5650 c3        1 MOL     -0.014548
    104 C33         7.1150    1.4640   -0.4820 c         1 MOL      0.647117
    105 O16         7.5600    0.9220   -1.4850 o         1 MOL     -0.555824
    106 C34         6.3350    3.7360    0.0310 c3        1 MOL     -0.048585
    107 C35         7.2660    4.5100   -0.8160 c         1 MOL      0.711095
    108 O17         8.4200    4.7710   -0.3740 o         1 MOL     -0.703533
    109 O18         6.8520    4.9340   -1.9360 o         1 MOL     -0.703533
    110 H47         5.9100    3.1520   -2.4950 hn        1 MOL      0.312951
    111 H48         5.2100    1.8900    0.1140 h1        1 MOL      0.066246
    112 H49         6.6480    3.6010    1.0750 hc        1 MOL     -0.018495
    113 H50         5.4570    4.3690    0.1800 hc        1 MOL     -0.018495
    114 N11         7.6550    1.1920    0.7400 n         1 MOL     -0.613783
    115 C36         9.0450    0.7610    0.8400 c3        1 MOL      0.352092
    116 C37         9.2270   -0.3050    1.9850 c         1 MOL      0.219423
    117 O19         8.7910   -0.0700    3.1130 o         1 MOL     -0.463327
    118 C38        10.0820    1.9320    0.9890 c3        1 MOL     -0.265362
    119 C39        11.4350    1.4850    0.5530 ca        1 MOL      0.226840
    120 C40        12.3830    0.9330    1.4980 ca        1 MOL     -0.240266
    121 C41        11.7850    1.4330   -0.7520 ca        1 MOL     -0.240266
    122 C42        13.6290    0.3540    1.0440 ca        1 MOL     -0.144173
    123 C43        13.0170    0.8190   -1.2500 ca        1 MOL     -0.144173
    124 C44        13.8690    0.2360   -0.3330 ca        1 MOL     -0.073972
    125 H51         7.1620    1.6060    1.5130 hn        1 MOL      0.347871
    126 H52         9.2650    0.3100   -0.1280 h1        1 MOL      0.068110
    127 H53        10.1070    2.1560    2.0580 hc        1 MOL      0.073727
    128 H54         9.7930    2.7760    0.3630 hc        1 MOL      0.073727
    129 H55        12.2310    0.8230    2.5610 ha        1 MOL      0.156515
    130 H56        11.0630    1.8330   -1.4450 ha        1 MOL      0.156515
    131 H57        14.3200   -0.0630    1.7700 ha        1 MOL      0.113691
    132 H58        13.3920    0.8130   -2.2720 ha        1 MOL      0.113691
    133 H59        14.7860   -0.2070   -0.6790 ha        1 MOL      0.072727
    134 N12         9.9240   -1.4130    1.8200 n         1 MOL      0.024797
    135 C45        10.5050   -2.0260    0.6030 c3        1 MOL      0.041207
    136 C46         9.4310   -2.6550   -0.3160 c         1 MOL      0.174168
    137 O20         9.5850   -2.7310   -1.5060 o         1 MOL     -0.495973
    138 C47        11.5000   -3.1290    1.1350 c3        1 MOL      0.129912
    139 C48        11.7410   -2.8190    2.5760 c3        1 MOL     -0.025718
    140 C49        10.3990   -2.1860    2.9480 c3        1 MOL     -0.437386
    141 H60        11.1060   -1.3310    0.0090 h1        1 MOL      0.073938
    142 H61        11.1080   -4.1370    1.0070 hc        1 MOL     -0.012743
    143 H62        12.4880   -3.0270    0.6890 hc        1 MOL     -0.012743
    144 H63        11.9340   -3.7600    3.0960 hc        1 MOL      0.005446
    145 H64        12.4790   -2.0220    2.6090 hc        1 MOL      0.005446
    146 H65         9.7620   -3.0270    3.2490 h1        1 MOL      0.189768
    147 H66        10.4620   -1.5800    3.8500 h1        1 MOL      0.189768
    148 N13         8.3780   -3.2350    0.2720 n         1 MOL     -0.053087
    149 C50         7.3870   -4.1010   -0.4110 c3        1 MOL      0.155173
    150 C51         7.9360   -5.5150   -0.4810 c         1 MOL      0.441691
    151 O21         7.9560   -6.3000    0.4570 o         1 MOL     -0.562942
    152 C52         6.0420   -4.0190    0.2630 c3        1 MOL      0.037802
    153 C53         5.5020   -2.5970    0.6170 c3        1 MOL     -0.087693
    154 C54         5.9630   -2.2790    2.0740 c         1 MOL      0.741160
    155 O22         7.0690   -2.6020    2.5350 o         1 MOL     -0.653238
    156 O23         5.2210   -1.5880    2.7670 o         1 MOL     -0.653238
    157 H67         8.2660   -3.2150    1.2820 hn        1 MOL      0.113402
    158 H68         7.2660   -3.6400   -1.3880 h1        1 MOL      0.065727
    159 H69         6.0000   -4.6080    1.1700 hc        1 MOL     -0.026714
    160 H70         5.4550   -4.5700   -0.4700 hc        1 MOL     -0.026714
    161 H71         4.4120   -2.5350    0.6160 hc        1 MOL     -0.023569
    162 H72         5.8230   -1.7850   -0.0240 hc        1 MOL     -0.023569
    163 N14         8.5530   -5.9680   -1.6010 n         1 MOL     -0.381020
    164 C55         8.6070   -5.3790   -2.9650 c3        1 MOL     -0.017790
    165 H73         9.3970   -4.6290   -3.0050 h1        1 MOL      0.034908
    166 H74         8.8160   -6.1640   -3.6920 h1        1 MOL      0.034908
    167 H75         7.6510   -4.9110   -3.1990 h1        1 MOL      0.034908
    168 H76         8.7230   -6.9670   -1.6190 hn        1 MOL      0.263530
    169 Ca1        -9.3650   -1.1110   -1.2190 Ca        1 MOL      1.728009
    170 O24       -11.1240    0.8090   -1.9000 oh        1 MOL     -0.804501
    171 H77       -10.8570    1.6260   -2.3190 ho        1 MOL      0.378608
    172 H78       -12.0200    0.6630   -2.2050 ho        1 MOL      0.378608
    173 O25       -11.1760   -2.8880   -2.2700 oh        1 MOL     -0.804501
    174 H79       -12.0030   -2.5060   -2.5790 ho        1 MOL      0.378608
    175 H80       -11.3680   -3.8270   -2.1770 ho        1 MOL      0.378608
    176 O26        -8.1350    1.4250   -1.8150 oh        1 MOL     -0.804501
    177 H81        -7.2500    1.7130   -1.6040 ho        1 MOL      0.378608
    178 H82        -8.4300    2.0400   -2.4950 ho        1 MOL      0.378608
    179 O27        -9.4400   -1.0560   -3.8980 oh        1 MOL     -0.804501
    180 H83        -8.9800   -1.7990   -4.2680 ho        1 MOL      0.378608
    181 H84       -10.0680   -0.8070   -4.5780 ho        1 MOL      0.378608
    182 O28       -11.7040   -1.4030    0.0050 oh        1 MOL     -0.804501
    183 H85       -12.3890   -0.7550    0.1590 ho        1 MOL      0.378608
    184 H86       -12.1690   -2.2420   -0.0220 ho        1 MOL      0.378608
@<TRIPOS>BOND
     1    1    2 1   
     2    1    4 1   
     3    1    5 1   
     4    1    6 1   
     5    2    3 2   
     6    2    7 1   
     7    7    8 1   
     8    7   15 1   
     9    8    9 1   
    10    8   11 1   
    11    8   16 1   
    12    9   10 2   
    13    9   19 1   
    14   11   12 1   
    15   11   17 1   
    16   11   18 1   
    17   12   13 1   
    18   12   14 1   
    19   19   20 1   
    20   19   24 1   
    21   20   21 1   
    22   20   23 1   
    23   20   25 1   
    24   21   22 2   
    25   21   29 1   
    26   23   26 1   
    27   23   27 1   
    28   23   28 1   
    29   29   30 1   
    30   29   37 1   
    31   30   31 1   
    32   30   33 1   
    33   30   38 1   
    34   31   32 2   
    35   31   41 1   
    36   33   34 1   
    37   33   39 1   
    38   33   40 1   
    39   34   35 1   
    40   34   36 1   
    41   41   42 1   
    42   41   45 1   
    43   42   43 1   
    44   42   46 1   
    45   42   47 1   
    46   43   44 2   
    47   43   48 1   
    48   48   49 1   
    49   48   56 1   
    50   49   50 1   
    51   49   52 1   
    52   49   57 1   
    53   50   51 2   
    54   50   62 1   
    55   52   53 1   
    56   52   58 1   
    57   52   59 1   
    58   53   54 1   
    59   53   55 2   
    60   54   60 1   
    61   54   61 1   
    62   62   63 1   
    63   62   66 1   
    64   63   64 1   
    65   63   67 1   
    66   63   68 1   
    67   64   65 2   
    68   64   69 1   
    69   69   70 1   
    70   69   76 1   
    71   70   71 1   
    72   70   73 1   
    73   70   77 1   
    74   71   72 2   
    75   71   83 1   
    76   73   74 1   
    77   73   75 1   
    78   73   78 1   
    79   74   80 1   
    80   74   81 1   
    81   74   82 1   
    82   75   79 1   
    83   83   84 1   
    84   83   91 1   
    85   84   85 1   
    86   84   87 1   
    87   84   92 1   
    88   85   86 2   
    89   85  102 1   
    90   87   88 1   
    91   87   89 1   
    92   87   93 1   
    93   88   90 1   
    94   88   94 1   
    95   88   95 1   
    96   89   96 1   
    97   89   97 1   
    98   89   98 1   
    99   90   99 1   
   100   90  100 1   
   101   90  101 1   
   102  102  103 1   
   103  102  110 1   
   104  103  104 1   
   105  103  106 1   
   106  103  111 1   
   107  104  105 2   
   108  104  114 1   
   109  106  107 1   
   110  106  112 1   
   111  106  113 1   
   112  107  108 1   
   113  107  109 1   
   114  114  115 1   
   115  114  125 1   
   116  115  116 1   
   117  115  118 1   
   118  115  126 1   
   119  116  117 2   
   120  116  134 1   
   121  118  119 1   
   122  118  127 1   
   123  118  128 1   
   124  119  120 ar  
   125  119  121 ar  
   126  120  122 ar  
   127  120  129 1   
   128  121  123 ar  
   129  121  130 1   
   130  122  124 ar  
   131  122  131 1   
   132  123  124 ar  
   133  123  132 1   
   134  124  133 1   
   135  134  135 1   
   136  134  140 1   
   137  135  136 1   
   138  135  138 1   
   139  135  141 1   
   140  136  137 2   
   141  136  148 1   
   142  138  139 1   
   143  138  142 1   
   144  138  143 1   
   145  139  140 1   
   146  139  144 1   
   147  139  145 1   
   148  140  146 1   
   149  140  147 1   
   150  148  149 1   
   151  148  157 1   
   152  149  150 1   
   153  149  152 1   
   154  149  158 1   
   155  150  151 2   
   156  150  163 1   
   157  152  153 1   
   158  152  159 1   
   159  152  160 1   
   160  153  154 1   
   161  153  161 1   
   162  153  162 1   
   163  154  155 1   
   164  154  156 1   
   165  163  164 1   
   166  163  168 1   
   167  164  165 1   
   168  164  166 1   
   169  164  167 1   
   170  170  171 1   
   171  170  172 1   
   172  173  174 1   
   173  173  175 1   
   174  176  177 1   
   175  176  178 1   
   176  179  180 1   
   177  179  181 1   
   178  182  183 1   
   179  182  184 1   
@<TRIPOS>SUBSTRUCTURE
     1 MOL         1 TEMP              0 ****  ****    0 ROOT
