@<TRIPOS>MOLECULE
MOL
  192   187     1     0     0
SMALL
resp


@<TRIPOS>ATOM
      1 C1          9.6430    0.3270    1.7600 c3        1 MOL     -0.553408
      2 C2          8.4690   -0.1850    0.9770 c         1 MOL      0.820659
      3 O1          7.5670   -0.7180    1.5640 o         1 MOL     -0.640551
      4 H1         10.1930   -0.5150    2.1810 hc        1 MOL      0.141946
      5 H2         10.3000    0.8960    1.1010 hc        1 MOL      0.141946
      6 H3          9.2900    0.9700    2.5660 hc        1 MOL      0.141946
      7 N1          8.4500    0.0010   -0.3460 n         1 MOL     -0.677156
      8 C3          7.3290   -0.1970   -1.2960 c3        1 MOL      0.186750
      9 C4          6.8630   -1.6540   -1.4910 c         1 MOL      0.451842
     10 O2          6.7970   -2.2010   -2.6180 o         1 MOL     -0.482257
     11 C5          7.5440    0.6100   -2.6760 c3        1 MOL     -0.228645
     12 C6          7.9760    2.0300   -2.1890 c         1 MOL      0.710413
     13 O3          9.1150    2.4120   -2.4990 o         1 MOL     -0.668896
     14 O4          7.1760    2.7240   -1.4780 o         1 MOL     -0.668896
     15 H4          9.3010    0.3180   -0.7990 hn        1 MOL      0.346023
     16 H5          6.5070    0.2400   -0.7200 h1        1 MOL      0.050576
     17 H6          6.5800    0.6070   -3.1760 hc        1 MOL      0.069046
     18 H7          8.3390    0.2160   -3.3120 hc        1 MOL      0.069046
     19 N2          6.7230   -2.4080   -0.3870 n         1 MOL     -0.376092
     20 C7          6.2630   -3.7710   -0.3220 c3        1 MOL      0.082165
     21 C8          4.8220   -3.9330   -0.8890 c         1 MOL      0.396944
     22 O5          4.5760   -4.8770   -1.6480 o         1 MOL     -0.508211
     23 C9          6.4620   -4.2370    1.1480 c3        1 MOL     -0.162074
     24 C10         7.9850   -4.4120    1.5390 c3        1 MOL      0.172544
     25 C11         8.2050   -4.9080    2.9570 c3        1 MOL     -0.108568
     26 C12         9.6710   -4.8360    3.3030 c3        1 MOL      0.103092
     27 N3          9.7920   -4.8250    4.7350 n4        1 MOL     -0.065210
     28 H8          6.7510   -1.9740    0.5300 hn        1 MOL      0.247761
     29 H9          6.8810   -4.4090   -0.9530 h1        1 MOL      0.087109
     30 H10         6.0430   -5.2330    1.2670 hc        1 MOL      0.047609
     31 H11         5.9050   -3.6510    1.8750 hc        1 MOL      0.047609
     32 H12         8.4190   -3.4210    1.4930 hc        1 MOL     -0.025693
     33 H13         8.4600   -4.9390    0.7230 hc        1 MOL     -0.025693
     34 H14         7.9530   -5.9610    3.0560 hc        1 MOL      0.042038
     35 H15         7.6300   -4.3370    3.6900 hc        1 MOL      0.042038
     36 H16        10.1240   -3.9010    2.9990 hx        1 MOL      0.037835
     37 H17        10.2290   -5.7050    2.9360 hx        1 MOL      0.037835
     38 H18         9.5610   -5.7750    4.9880 hn        1 MOL      0.214401
     39 H19        10.7660   -4.7290    4.9680 hn        1 MOL      0.214401
     40 H20         9.1550   -4.2250    5.2520 hn        1 MOL      0.214401
     41 N4          3.8150   -3.0130   -0.6520 n         1 MOL     -0.272561
     42 C13         3.8150   -1.8340    0.1970 c3        1 MOL      0.004660
     43 C14         3.8430   -0.5200   -0.6420 c         1 MOL      0.318311
     44 O6          3.7270   -0.5540   -1.8850 o         1 MOL     -0.446935
     45 C15         2.5680   -1.7530    1.1130 c3        1 MOL     -0.181431
     46 C16         1.3850   -2.0320    0.2770 c         1 MOL      0.756982
     47 O7          0.9530   -1.0840   -0.4060 o         1 MOL     -0.718710
     48 O8          0.9750   -3.1850    0.2980 o         1 MOL     -0.718710
     49 H21         2.9370   -3.3300   -1.0190 hn        1 MOL      0.300953
     50 H22         4.7460   -1.9370    0.7490 h1        1 MOL      0.072354
     51 H23         2.5300   -0.7900    1.6180 hc        1 MOL      0.021173
     52 H24         2.6190   -2.5630    1.8420 hc        1 MOL      0.021173
     53 N5          4.0410    0.6490    0.0030 n         1 MOL     -0.336520
     54 C17         4.0290    1.9670   -0.6710 c3        1 MOL      0.202132
     55 C18         2.6770    2.5920   -1.0190 c         1 MOL      0.288741
     56 O9          1.5580    2.1230   -0.8490 o         1 MOL     -0.416122
     57 H25         4.1890    0.6500    1.0030 hn        1 MOL      0.256202
     58 H26         4.6820    1.8650   -1.5270 h1        1 MOL      0.045795
     59 H27         4.5640    2.7070   -0.0810 h1        1 MOL      0.045795
     60 N6          2.7350    3.8040   -1.5910 n         1 MOL     -0.454701
     61 C19         1.6840    4.7040   -1.9920 c3        1 MOL      0.417480
     62 C20         2.1490    6.1620   -1.8690 c         1 MOL      0.422864
     63 O10         3.2980    6.5150   -2.0110 o         1 MOL     -0.485041
     64 C21         1.1440    4.4070   -3.3580 c3        1 MOL     -0.405934
     65 C22         0.7720    2.9460   -3.5240 c         1 MOL      0.770691
     66 O11         1.4790    2.1050   -4.1160 o         1 MOL     -0.684680
     67 O12        -0.3560    2.5700   -3.1060 o         1 MOL     -0.684680
     68 H28         3.6490    4.2300   -1.6380 hn        1 MOL      0.268013
     69 H29         0.7930    4.4820   -1.3920 h1        1 MOL     -0.023997
     70 H30         1.8750    4.6430   -4.1250 hc        1 MOL      0.085247
     71 H31         0.2660    5.0250   -3.5890 hc        1 MOL      0.085247
     72 N7          1.2020    7.1450   -1.6250 n         1 MOL     -0.459450
     73 C23        -0.2800    7.0480   -1.6550 c3        1 MOL     -0.004752
     74 C24        -0.7470    6.4320   -0.3850 c         1 MOL      0.536628
     75 O13        -0.2070    6.6550    0.7590 o         1 MOL     -0.523875
     76 H32         1.5860    8.0740   -1.5550 hn        1 MOL      0.308169
     77 H33        -0.5620    6.3750   -2.4680 h1        1 MOL      0.071339
     78 H34        -0.7050    8.0200   -1.8690 h1        1 MOL      0.071339
     79 N8         -1.8000    5.6060   -0.5520 n         1 MOL     -0.580940
     80 C25        -2.3710    4.8970    0.6410 c3        1 MOL      0.048735
     81 C26        -1.5070    3.6610    0.9390 c         1 MOL      0.770827
     82 O14        -1.3530    2.8400    0.0930 o         1 MOL     -0.710878
     83 C27        -3.7990    4.5420    0.2710 c3        1 MOL      0.337806
     84 C28        -4.4150    3.7130    1.4550 c3        1 MOL     -0.385407
     85 O15        -3.9690    3.8740   -0.9190 oh        1 MOL     -0.560661
     86 H35        -2.1610    5.4430   -1.4770 hn        1 MOL      0.299489
     87 H36        -2.5440    5.5870    1.4640 h1        1 MOL      0.063279
     88 H37        -4.2840    5.5250    0.2720 h1        1 MOL      0.008580
     89 H38        -3.1590    3.9710   -1.4280 ho        1 MOL      0.371876
     90 H39        -4.4020    4.1720    2.4480 hc        1 MOL      0.094065
     91 H40        -5.4810    3.6860    1.2330 hc        1 MOL      0.094065
     92 H41        -4.1360    2.6630    1.4150 hc        1 MOL      0.094065
     93 N9         -1.1060    3.5490    2.2120 n         1 MOL     -0.601058
     94 C29        -0.3440    2.4410    2.8000 c3        1 MOL     -0.063426
     95 C30        -0.8290    1.0310    2.4910 c         1 MOL      0.831596
     96 O16        -0.7110    0.5850    1.3520 o         1 MOL     -0.552631
     97 C31         1.1590    2.6140    2.5520 c3        1 MOL      0.284843
     98 C32         1.7080    4.0800    2.7750 c3        1 MOL      0.043980
     99 C33         1.9160    1.5290    3.3690 c3        1 MOL     -0.553063
    100 C34         1.4010    4.7200    4.1360 c3        1 MOL     -0.284991
    101 H42        -1.4560    4.2430    2.8570 hn        1 MOL      0.301323
    102 H43        -0.5080    2.6200    3.8590 h1        1 MOL      0.024115
    103 H44         1.3280    2.2750    1.5350 hc        1 MOL     -0.086161
    104 H45         1.5260    4.7530    1.9390 hc        1 MOL      0.029068
    105 H46         2.7870    3.9610    2.7920 hc        1 MOL      0.029068
    106 H47         2.9640    1.6010    3.0890 hc        1 MOL      0.133867
    107 H48         1.8820    1.8500    4.4020 hc        1 MOL      0.133867
    108 H49         1.5670    0.5110    3.2030 hc        1 MOL      0.133867
    109 H50         1.6050    3.9950    4.9180 hc        1 MOL      0.072990
    110 H51         2.0730    5.5730    4.2600 hc        1 MOL      0.072990
    111 H52         0.3880    5.1110    4.0420 hc        1 MOL      0.072990
    112 N10        -1.3610    0.3790    3.5040 n         1 MOL     -0.693062
    113 C35        -1.8680   -0.9900    3.4720 c3        1 MOL     -0.015573
    114 C36        -3.4140   -1.2970    3.1290 c         1 MOL      0.682186
    115 O17        -3.7970   -2.4330    2.7460 o         1 MOL     -0.550527
    116 C37        -1.4370   -1.5740    4.8370 c3        1 MOL      0.409648
    117 C38        -1.7830   -3.0650    4.9270 c3        1 MOL     -0.360021
    118 O18        -2.0760   -0.9880    5.9090 oh        1 MOL     -0.599906
    119 H53        -1.4230    0.8950    4.3710 hn        1 MOL      0.296780
    120 H54        -1.4250   -1.6220    2.7080 h1        1 MOL      0.099149
    121 H55        -0.3640   -1.4580    4.9620 h1        1 MOL      0.002435
    122 H56        -2.0460   -0.0360    5.7890 ho        1 MOL      0.355044
    123 H57        -1.3150   -3.5590    4.0720 hc        1 MOL      0.100403
    124 H58        -1.3150   -3.4110    5.8450 hc        1 MOL      0.100403
    125 H59        -2.8440   -3.3170    4.8960 hc        1 MOL      0.100403
    126 N11        -4.2380   -0.2430    3.2050 n         1 MOL     -0.585607
    127 C39        -5.7060   -0.4420    2.8630 c3        1 MOL      0.019433
    128 C40        -5.9250   -0.8530    1.4410 c         1 MOL      0.556054
    129 O19        -5.3830   -0.0550    0.6530 o         1 MOL     -0.526283
    130 C41        -6.4880    0.8230    3.1150 c3        1 MOL      0.271469
    131 C42        -8.0150    0.5500    2.9880 c3        1 MOL      0.028572
    132 O20        -6.2830    1.3580    4.4320 oh        1 MOL     -0.620349
    133 H60        -3.9070    0.7010    3.3190 hn        1 MOL      0.295578
    134 H61        -6.1360   -1.1360    3.5860 h1        1 MOL      0.057150
    135 H62        -6.3710    1.6660    2.4220 h1        1 MOL     -0.005250
    136 H63        -5.3680    1.6360    4.5050 ho        1 MOL      0.397976
    137 H64        -8.6710    1.2180    3.5410 hc        1 MOL      0.001199
    138 H65        -8.4050    0.6040    1.9720 hc        1 MOL      0.001199
    139 H66        -8.3810   -0.3930    3.3750 hc        1 MOL      0.001199
    140 N12        -6.6120   -1.9590    1.1270 n         1 MOL     -0.274636
    141 C43        -6.9390   -2.4860   -0.1890 c3        1 MOL     -0.049878
    142 C44        -5.8180   -2.3860   -1.3260 c         1 MOL      0.597133
    143 O21        -5.9710   -1.5080   -2.1670 o         1 MOL     -0.543111
    144 C45        -8.3740   -2.0140   -0.6220 c3        1 MOL     -0.079518
    145 C46        -9.5170   -2.3090    0.3330 c3        1 MOL     -0.011671
    146 C47       -10.9720   -1.9740   -0.1500 c3        1 MOL      0.107376
    147 C48       -11.1830   -0.5390   -0.5020 c3        1 MOL      0.118000
    148 N13       -12.5460   -0.1560   -0.9980 n4        1 MOL     -0.219783
    149 H67        -6.7810   -2.5450    1.9330 hn        1 MOL      0.221336
    150 H68        -7.0210   -3.5390    0.0940 h1        1 MOL      0.078493
    151 H69        -8.6260   -2.4110   -1.6040 hc        1 MOL      0.054038
    152 H70        -8.3830   -0.9280   -0.7150 hc        1 MOL      0.054038
    153 H71        -9.3980   -1.6820    1.2220 hc        1 MOL     -0.008000
    154 H72        -9.6490   -3.3810    0.5080 hc        1 MOL     -0.008000
    155 H73       -11.6840   -2.2230    0.6260 hc        1 MOL     -0.003552
    156 H74       -11.2900   -2.5570   -1.0130 hc        1 MOL     -0.003552
    157 H75       -10.5150   -0.2600   -1.3190 hx        1 MOL      0.029002
    158 H76       -11.0110    0.0650    0.3890 hx        1 MOL      0.029002
    159 H77       -12.6270    0.8470   -1.0710 hn        1 MOL      0.203984
    160 H78       -12.7910   -0.5590   -1.8840 hn        1 MOL      0.203984
    161 H79       -13.2900   -0.4920   -0.4100 hn        1 MOL      0.203984
    162 N14        -4.7730   -3.1440   -1.2190 n         1 MOL     -0.693092
    163 C49        -3.5420   -3.1210   -2.0440 c3        1 MOL      0.840143
    164 C50        -2.2460   -2.7900   -1.3040 c         1 MOL      0.252696
    165 O22        -1.9070   -1.6330   -1.2610 o         1 MOL     -0.616582
    166 C51        -3.3650   -4.4110   -2.9070 c3        1 MOL     -0.501206
    167 C52        -4.1820   -4.1820   -4.1990 c3        1 MOL     -0.226468
    168 C53        -4.0980   -5.4030   -5.0510 c         1 MOL      0.782637
    169 O23        -3.2150   -5.3390   -5.9540 o         1 MOL     -0.648864
    170 O24        -4.8660   -6.3290   -5.0250 o         1 MOL     -0.648864
    171 H80        -4.6510   -3.7080   -0.3910 hn        1 MOL      0.309982
    172 H81        -3.5710   -2.2550   -2.7080 h1        1 MOL     -0.110622
    173 H82        -3.5560   -5.3060   -2.3120 hc        1 MOL      0.152733
    174 H83        -2.3120   -4.3760   -3.1630 hc        1 MOL      0.152733
    175 H84        -3.7450   -3.3260   -4.7230 hc        1 MOL      0.064486
    176 H85        -5.2170   -3.9670   -3.9510 hc        1 MOL      0.064486
    177 N15        -1.5920   -3.7230   -0.6430 n         1 MOL     -0.397597
    178 C54        -1.9850   -5.1280   -0.2500 c3        1 MOL     -0.015717
    179 H86        -3.0610   -5.2510   -0.3690 h1        1 MOL      0.042711
    180 H87        -1.4650   -5.8430   -0.8880 h1        1 MOL      0.042711
    181 H88        -1.7130   -5.3040    0.7900 h1        1 MOL      0.042711
    182 H89        -0.6940   -3.4450   -0.2830 hn        1 MOL      0.408776
    183 Ca1        -0.5660    0.6570   -1.4250 Ca        1 MOL      1.760055
    184 O25         1.4370   -0.3000   -3.0160 oh        1 MOL     -0.870274
    185 H90         1.6070    0.3430   -3.6900 ho        1 MOL      0.431110
    186 H91         2.2490   -0.3450   -2.5130 ho        1 MOL      0.431110
    187 O26        -1.5750    0.0130   -3.8950 oh        1 MOL     -0.870274
    188 H92        -2.5240   -0.0200   -3.9630 ho        1 MOL      0.431110
    189 H93        -1.2790   -0.7960   -4.3150 ho        1 MOL      0.431110
    190 O27        -3.3280    0.9040   -1.1920 oh        1 MOL     -0.870274
    191 H94        -3.8030    0.1950   -0.7480 ho        1 MOL      0.431110
    192 H95        -3.8530    1.6870   -1.0250 ho        1 MOL      0.431110
@<TRIPOS>BOND
     1    1    2 1   
     2    1    4 1   
     3    1    5 1   
     4    1    6 1   
     5    2    3 2   
     6    2    7 1   
     7    7    8 1   
     8    7   15 1   
     9    8    9 1   
    10    8   11 1   
    11    8   16 1   
    12    9   10 2   
    13    9   19 1   
    14   11   12 1   
    15   11   17 1   
    16   11   18 1   
    17   12   13 1   
    18   12   14 1   
    19   19   20 1   
    20   19   28 1   
    21   20   21 1   
    22   20   23 1   
    23   20   29 1   
    24   21   22 2   
    25   21   41 1   
    26   23   24 1   
    27   23   30 1   
    28   23   31 1   
    29   24   25 1   
    30   24   32 1   
    31   24   33 1   
    32   25   26 1   
    33   25   34 1   
    34   25   35 1   
    35   26   27 1   
    36   26   36 1   
    37   26   37 1   
    38   27   38 1   
    39   27   39 1   
    40   27   40 1   
    41   41   42 1   
    42   41   49 1   
    43   42   43 1   
    44   42   45 1   
    45   42   50 1   
    46   43   44 2   
    47   43   53 1   
    48   45   46 1   
    49   45   51 1   
    50   45   52 1   
    51   46   47 1   
    52   46   48 1   
    53   53   54 1   
    54   53   57 1   
    55   54   55 1   
    56   54   58 1   
    57   54   59 1   
    58   55   56 2   
    59   55   60 1   
    60   60   61 1   
    61   60   68 1   
    62   61   62 1   
    63   61   64 1   
    64   61   69 1   
    65   62   63 2   
    66   62   72 1   
    67   64   65 1   
    68   64   70 1   
    69   64   71 1   
    70   65   66 1   
    71   65   67 1   
    72   72   73 1   
    73   72   76 1   
    74   73   74 1   
    75   73   77 1   
    76   73   78 1   
    77   74   75 2   
    78   74   79 1   
    79   79   80 1   
    80   79   86 1   
    81   80   81 1   
    82   80   83 1   
    83   80   87 1   
    84   81   82 2   
    85   81   93 1   
    86   83   84 1   
    87   83   85 1   
    88   83   88 1   
    89   84   90 1   
    90   84   91 1   
    91   84   92 1   
    92   85   89 1   
    93   93   94 1   
    94   93  101 1   
    95   94   95 1   
    96   94   97 1   
    97   94  102 1   
    98   95   96 2   
    99   95  112 1   
   100   97   98 1   
   101   97   99 1   
   102   97  103 1   
   103   98  100 1   
   104   98  104 1   
   105   98  105 1   
   106   99  106 1   
   107   99  107 1   
   108   99  108 1   
   109  100  109 1   
   110  100  110 1   
   111  100  111 1   
   112  112  113 1   
   113  112  119 1   
   114  113  114 1   
   115  113  116 1   
   116  113  120 1   
   117  114  115 2   
   118  114  126 1   
   119  116  117 1   
   120  116  118 1   
   121  116  121 1   
   122  117  123 1   
   123  117  124 1   
   124  117  125 1   
   125  118  122 1   
   126  126  127 1   
   127  126  133 1   
   128  127  128 1   
   129  127  130 1   
   130  127  134 1   
   131  128  129 2   
   132  128  140 1   
   133  130  131 1   
   134  130  132 1   
   135  130  135 1   
   136  131  137 1   
   137  131  138 1   
   138  131  139 1   
   139  132  136 1   
   140  140  141 1   
   141  140  149 1   
   142  141  142 1   
   143  141  144 1   
   144  141  150 1   
   145  142  143 2   
   146  142  162 1   
   147  144  145 1   
   148  144  151 1   
   149  144  152 1   
   150  145  146 1   
   151  145  153 1   
   152  145  154 1   
   153  146  147 1   
   154  146  155 1   
   155  146  156 1   
   156  147  148 1   
   157  147  157 1   
   158  147  158 1   
   159  148  159 1   
   160  148  160 1   
   161  148  161 1   
   162  162  163 1   
   163  162  171 1   
   164  163  164 1   
   165  163  166 1   
   166  163  172 1   
   167  164  165 2   
   168  164  177 1   
   169  166  167 1   
   170  166  173 1   
   171  166  174 1   
   172  167  168 1   
   173  167  175 1   
   174  167  176 1   
   175  168  169 1   
   176  168  170 1   
   177  177  178 1   
   178  177  182 1   
   179  178  179 1   
   180  178  180 1   
   181  178  181 1   
   182  184  185 1   
   183  184  186 1   
   184  187  188 1   
   185  187  189 1   
   186  190  191 1   
   187  190  192 1   
@<TRIPOS>SUBSTRUCTURE
     1 MOL         1 TEMP              0 ****  ****    0 ROOT
