@<TRIPOS>MOLECULE
MOL
  185   180     1     0     0
SMALL
resp


@<TRIPOS>ATOM
      1 C1          7.7500   -0.4690   -4.7240 c3        1 MOL     -0.480067
      2 C2          6.6020   -0.6490   -3.6870 c         1 MOL      0.586933
      3 O1          5.4100   -0.7090   -4.0760 o         1 MOL     -0.611747
      4 H1          7.6960   -1.2670   -5.4660 hc        1 MOL      0.128569
      5 H2          7.6440    0.4950   -5.2200 hc        1 MOL      0.128569
      6 H3          8.7120   -0.5120   -4.2130 hc        1 MOL      0.128569
      7 N1          6.9060   -0.6720   -2.4280 n         1 MOL     -0.332528
      8 C3          6.0370   -0.7470   -1.3190 c3        1 MOL      0.109805
      9 C4          5.2200    0.5580   -1.0890 c         1 MOL      0.382003
     10 O2          4.3380    0.6430   -0.1980 o         1 MOL     -0.462518
     11 C5          6.9530   -0.9750   -0.0010 c3        1 MOL     -0.368439
     12 C6          8.0350    0.0800    0.3030 c         1 MOL      0.761904
     13 O3          8.1630    1.0050   -0.5110 o         1 MOL     -0.668454
     14 O4          8.7930    0.0380    1.3300 o         1 MOL     -0.668454
     15 H4          7.8830   -0.4520   -2.2720 hn        1 MOL      0.246130
     16 H5          5.3250   -1.5300   -1.5880 h1        1 MOL      0.071517
     17 H6          7.4220   -1.9500   -0.0340 hc        1 MOL      0.118503
     18 H7          6.3960   -0.9350    0.9400 hc        1 MOL      0.118503
     19 N2          5.5510    1.6740   -1.7700 n         1 MOL     -0.326181
     20 C7          4.7980    2.9440   -1.6740 c3        1 MOL     -0.037233
     21 C8          4.6870    3.4270   -0.2120 c         1 MOL      0.567537
     22 O5          5.6670    3.5100    0.5560 o         1 MOL     -0.464278
     23 C9          5.5050    3.9410   -2.6140 c3        1 MOL     -0.092427
     24 C10         4.8220    5.3360   -2.6790 c3        1 MOL     -0.095484
     25 C11         5.5140    6.2980   -3.5950 c3        1 MOL      0.079137
     26 C12         4.8110    7.6640   -3.6300 c3        1 MOL      0.163580
     27 N3          5.6130    8.6760   -4.4080 n4        1 MOL     -0.416547
     28 H8          6.3230    1.6740   -2.4300 hn        1 MOL      0.267832
     29 H9          3.7970    2.8370   -2.0990 h1        1 MOL      0.110569
     30 H10         5.3220    3.5450   -3.6150 hc        1 MOL      0.068528
     31 H11         6.5790    4.0440   -2.4420 hc        1 MOL      0.068528
     32 H12         4.9120    5.8620   -1.7230 hc        1 MOL      0.050598
     33 H13         3.8120    5.2450   -3.0770 hc        1 MOL      0.050598
     34 H14         5.4600    5.9300   -4.6180 hc        1 MOL     -0.003382
     35 H15         6.5660    6.4090   -3.3250 hc        1 MOL     -0.003382
     36 H16         4.7090    8.0870   -2.6330 hx        1 MOL      0.042549
     37 H17         3.7960    7.5540   -3.9920 hx        1 MOL      0.042549
     38 H18         5.9070    8.4430   -5.3380 hn        1 MOL      0.307777
     39 H19         5.0580    9.5070   -4.5270 hn        1 MOL      0.307777
     40 H20         6.3830    8.8310   -3.7650 hn        1 MOL      0.307777
     41 N4          3.4400    3.6290    0.2760 n         1 MOL     -0.437249
     42 C13         3.0310    3.9930    1.6430 c3        1 MOL     -0.133357
     43 C14         3.3240    2.9760    2.7220 c         1 MOL      0.426662
     44 O6          3.2290    3.2570    3.9270 o         1 MOL     -0.542950
     45 C15         1.5490    4.3490    1.6600 c3        1 MOL     -0.079599
     46 C16         0.6990    3.2180    1.3210 c         1 MOL      0.670137
     47 O7          0.0590    2.6470    2.2190 o         1 MOL     -0.683094
     48 O8          0.6750    2.8590    0.0970 o         1 MOL     -0.683094
     49 H21         2.6960    3.5540   -0.3940 hn        1 MOL      0.161235
     50 H22         3.6200    4.8520    1.9530 h1        1 MOL      0.132745
     51 H23         1.2290    5.1840    1.0410 hc        1 MOL      0.055048
     52 H24         1.2900    4.7080    2.6530 hc        1 MOL      0.055048
     53 N5          3.6410    1.7690    2.3770 n         1 MOL     -0.122866
     54 C17         4.0400    0.5590    3.1760 c3        1 MOL      0.153328
     55 C18         5.5360    0.4310    3.5120 c         1 MOL      0.602903
     56 O9          6.2340    1.4050    3.6400 o         1 MOL     -0.492184
     57 H25         3.7260    1.6980    1.3700 hn        1 MOL      0.134966
     58 H26         3.6630   -0.3100    2.6400 h1        1 MOL     -0.019112
     59 H27         3.5840    0.6960    4.1530 h1        1 MOL     -0.019112
     60 N6          6.1170   -0.7640    3.6300 n         1 MOL     -0.616079
     61 C19         5.3450   -2.0040    3.8960 c3        1 MOL      0.299190
     62 C20         5.5150   -3.1340    2.8320 c         1 MOL      0.294339
     63 O10         6.5830   -3.7800    2.7920 o         1 MOL     -0.481024
     64 C21         5.6030   -2.5100    5.3440 c3        1 MOL     -0.244688
     65 C22         4.7260   -3.7370    5.7810 c         1 MOL      0.705611
     66 N7          4.0890   -3.6120    6.9120 n         1 MOL     -0.830054
     67 O11         4.6710   -4.8150    5.2370 o         1 MOL     -0.537257
     68 H28         7.1230   -0.7450    3.7870 hn        1 MOL      0.363373
     69 H29         4.2780   -1.7720    3.9460 h1        1 MOL     -0.008549
     70 H30         5.3850   -1.7070    6.0380 hc        1 MOL      0.077558
     71 H31         6.6420   -2.8030    5.5030 hc        1 MOL      0.077558
     72 H32         4.2080   -2.7990    7.4940 hn        1 MOL      0.367136
     73 H33         3.4880   -4.3620    7.2340 hn        1 MOL      0.367136
     74 N8          4.6830   -3.3990    1.8170 n         1 MOL     -0.376224
     75 C23         3.4320   -2.6980    1.3690 c3        1 MOL     -0.111853
     76 C24         2.8800   -3.3070    0.1350 c         1 MOL      0.595856
     77 O12         3.5500   -3.6080   -0.8310 o         1 MOL     -0.491155
     78 H34         5.0480   -4.0320    1.1250 hn        1 MOL      0.308515
     79 H35         3.6720   -1.6860    1.0460 h1        1 MOL      0.057003
     80 H36         2.7300   -2.6700    2.2030 h1        1 MOL      0.057003
     81 N9          1.5400   -3.3860    0.1520 n         1 MOL     -0.536088
     82 C25         0.6690   -3.7360   -1.0340 c3        1 MOL      0.224921
     83 C26        -0.5480   -2.7630   -1.1200 c         1 MOL      0.623474
     84 O13        -0.7100   -1.8310   -0.2700 o         1 MOL     -0.653847
     85 C27         0.1020   -5.1640   -0.9070 c3        1 MOL     -0.243261
     86 C28        -0.6820   -5.6910   -2.1140 ca        1 MOL      0.165995
     87 C29        -2.0220   -6.1170   -1.9410 ca        1 MOL     -0.260050
     88 C30        -0.0400   -5.7690   -3.3490 ca        1 MOL     -0.260050
     89 C31        -2.6410   -6.6610   -3.0790 ca        1 MOL     -0.167681
     90 C32        -0.6490   -6.3180   -4.4140 ca        1 MOL     -0.167681
     91 C33        -1.9260   -6.8630   -4.3160 ca        1 MOL      0.262545
     92 O14        -2.5500   -7.2980   -5.4160 oh        1 MOL     -0.446456
     93 H37         1.0930   -3.3450    1.0620 hn        1 MOL      0.283440
     94 H38         1.1910   -3.7480   -1.9890 h1        1 MOL      0.007162
     95 H39        -0.5150   -5.1560   -0.0150 hc        1 MOL      0.091448
     96 H40         0.9490   -5.8280   -0.7180 hc        1 MOL      0.091448
     97 H41        -2.5740   -6.0770   -1.0130 ha        1 MOL      0.179022
     98 H42         0.9090   -5.2730   -3.3920 ha        1 MOL      0.179022
     99 H43        -3.6950   -6.8980   -2.9990 ha        1 MOL      0.128644
    100 H44        -0.0900   -6.4470   -5.3240 ha        1 MOL      0.128644
    101 H45        -1.9320   -7.0170   -6.0970 ho        1 MOL      0.349002
    102 N10        -1.3880   -2.9200   -2.1760 n         1 MOL     -0.548094
    103 C34        -2.7220   -2.2190   -2.2830 c3        1 MOL      0.465764
    104 C35        -3.8440   -2.7520   -1.3170 c         1 MOL      0.470981
    105 O15        -3.8560   -4.0000   -1.1490 o         1 MOL     -0.517969
    106 C36        -3.2290   -2.1890   -3.7720 c3        1 MOL      0.015602
    107 C37        -2.4510   -1.1130   -4.6120 c3        1 MOL     -0.117268
    108 C38        -3.0700   -3.5770   -4.3990 c3        1 MOL     -0.085483
    109 C39        -2.9510    0.2970   -4.4020 c3        1 MOL      0.054761
    110 H46        -1.2580   -3.7310   -2.7690 hn        1 MOL      0.213763
    111 H47        -2.5080   -1.2000   -2.0030 h1        1 MOL     -0.166560
    112 H48        -4.2860   -1.9290   -3.7250 hc        1 MOL      0.032613
    113 H49        -2.5380   -1.3300   -5.6780 hc        1 MOL      0.023274
    114 H50        -1.3920   -1.0290   -4.3780 hc        1 MOL      0.023274
    115 H51        -2.0170   -3.8120   -4.5560 hc        1 MOL      0.028662
    116 H52        -3.6040   -4.3220   -3.8050 hc        1 MOL      0.028662
    117 H53        -3.5300   -3.6120   -5.3870 hc        1 MOL      0.028662
    118 H54        -2.5720    0.9990   -5.1530 hc        1 MOL     -0.008887
    119 H55        -4.0350    0.4060   -4.4910 hc        1 MOL     -0.008887
    120 H56        -2.6620    0.5880   -3.3900 hc        1 MOL     -0.008887
    121 N11        -4.5930   -1.8510   -0.6960 n         1 MOL     -0.503106
    122 C40        -5.4330   -2.2550    0.5030 c3        1 MOL      0.147659
    123 C41        -5.6990   -1.2400    1.6320 c         1 MOL      0.282522
    124 O16        -5.4570   -0.0580    1.3600 o         1 MOL     -0.213761
    125 C42        -6.8020   -2.7920   -0.0350 c3        1 MOL      0.037276
    126 O17        -7.7850   -1.7780   -0.3820 oh        1 MOL     -0.549148
    127 H57        -4.5420   -0.8660   -0.9140 hn        1 MOL      0.290936
    128 H58        -5.0200   -3.1340    0.9920 h1        1 MOL      0.049984
    129 H59        -7.2060   -3.4290    0.7450 h1        1 MOL      0.055647
    130 H60        -6.6240   -3.3380   -0.9560 h1        1 MOL      0.055647
    131 H61        -8.4470   -2.1760   -0.9460 ho        1 MOL      0.393608
    132 N12        -6.2580   -1.5620    2.7820 n         1 MOL     -0.424614
    133 C43        -6.6060   -0.6100    3.8380 c3        1 MOL     -0.029695
    134 C44        -7.4430    0.6250    3.3400 c         1 MOL      0.381567
    135 O18        -7.3100    1.8050    3.7940 o         1 MOL     -0.416739
    136 C45        -5.3720   -0.2620    4.5770 c3        1 MOL     -0.195768
    137 H62        -6.6570   -2.4690    3.0170 hn        1 MOL      0.329052
    138 H63        -7.2300   -1.1360    4.5510 h1        1 MOL      0.121656
    139 H64        -5.5890    0.1800    5.5580 hc        1 MOL      0.074890
    140 H65        -4.7410   -1.1050    4.8510 hc        1 MOL      0.074890
    141 H66        -4.7980    0.4490    3.9920 hc        1 MOL      0.074890
    142 N13        -8.3580    0.3770    2.3820 n         1 MOL     -0.389848
    143 C46        -9.3010    1.2660    1.7350 c3        1 MOL      0.144127
    144 C47        -8.6270    2.6140    1.2910 c         1 MOL      0.313379
    145 O19        -9.2270    3.6690    1.4090 o         1 MOL     -0.450513
    146 C48       -10.4600    1.5140    2.7350 c3        1 MOL     -0.154348
    147 H67        -8.3270   -0.5630    1.9980 hn        1 MOL      0.232309
    148 H68        -9.8270    0.7680    0.9270 h1        1 MOL      0.041774
    149 H69       -10.9300    0.6330    3.1620 hc        1 MOL      0.055573
    150 H70       -10.0460    2.0880    3.5580 hc        1 MOL      0.055573
    151 H71       -11.2570    2.1340    2.3130 hc        1 MOL      0.055573
    152 N14        -7.3620    2.6030    0.7900 n         1 MOL     -0.209273
    153 C49        -6.5730    3.8320    0.3850 c3        1 MOL     -0.172783
    154 C50        -7.1010    4.4150   -0.8820 c         1 MOL      0.593308
    155 O20        -7.3340    5.6030   -0.8550 o         1 MOL     -0.533517
    156 C51        -5.1030    3.4910    0.4320 c3        1 MOL      0.272704
    157 C52        -4.6660    2.7200   -0.7920 c3        1 MOL     -0.270282
    158 C53        -3.2680    2.1130   -0.6480 c         1 MOL      0.766404
    159 O21        -3.0890    0.9370   -0.7670 o         1 MOL     -0.738959
    160 O22        -2.3560    2.8310   -0.2360 o         1 MOL     -0.738959
    161 H72        -7.0180    1.6650    0.6520 hn        1 MOL      0.109615
    162 H73        -6.7410    4.5400    1.2060 h1        1 MOL      0.138345
    163 H74        -4.8800    3.0080    1.3830 hc        1 MOL     -0.019816
    164 H75        -4.5710    4.4410    0.4060 hc        1 MOL     -0.019816
    165 H76        -4.7360    3.3850   -1.6530 hc        1 MOL      0.029458
    166 H77        -5.3410    1.8790   -0.9540 hc        1 MOL      0.029458
    167 N15        -7.3780    3.6210   -1.9590 n         1 MOL     -0.349517
    168 C54        -7.8680    4.2230   -3.2250 c3        1 MOL     -0.043848
    169 H78        -8.8720    3.8550   -3.4380 h1        1 MOL      0.057516
    170 H79        -7.8930    5.3090   -3.1270 h1        1 MOL      0.057516
    171 H80        -7.2010    3.9470   -4.0420 h1        1 MOL      0.057516
    172 H81        -7.2410    2.6230   -1.8770 hn        1 MOL      0.233377
    173 Ca1        -0.6630    0.7830    0.3150 Ca        1 MOL      1.728717
    174 O23         0.0610    1.0230   -2.3060 oh        1 MOL     -0.818362
    175 H82         0.8500    0.7620   -2.7940 ho        1 MOL      0.401699
    176 H83        -0.5380    1.3230   -2.9870 ho        1 MOL      0.401699
    177 O24        -2.6570    0.4720    1.9870 oh        1 MOL     -0.818362
    178 H84        -3.5070    0.6260    1.5740 ho        1 MOL      0.401699
    179 H85        -2.7790   -0.3030    2.5220 ho        1 MOL      0.401699
    180 O25         1.8960   -0.1400   -0.1060 oh        1 MOL     -0.818362
    181 H86         2.7740    0.1690    0.1030 ho        1 MOL      0.401699
    182 H87         1.9520   -0.4160   -1.0210 ho        1 MOL      0.401699
    183 O26         0.2670   -0.6750    2.4110 oh        1 MOL     -0.818362
    184 H88         0.0340   -1.6010    2.4540 ho        1 MOL      0.401699
    185 H89         0.8660   -0.5410    3.1370 ho        1 MOL      0.401699
@<TRIPOS>BOND
     1    1    2 1   
     2    1    4 1   
     3    1    5 1   
     4    1    6 1   
     5    2    3 2   
     6    2    7 1   
     7    7    8 1   
     8    7   15 1   
     9    8    9 1   
    10    8   11 1   
    11    8   16 1   
    12    9   10 2   
    13    9   19 1   
    14   11   12 1   
    15   11   17 1   
    16   11   18 1   
    17   12   13 1   
    18   12   14 1   
    19   19   20 1   
    20   19   28 1   
    21   20   21 1   
    22   20   23 1   
    23   20   29 1   
    24   21   22 2   
    25   21   41 1   
    26   23   24 1   
    27   23   30 1   
    28   23   31 1   
    29   24   25 1   
    30   24   32 1   
    31   24   33 1   
    32   25   26 1   
    33   25   34 1   
    34   25   35 1   
    35   26   27 1   
    36   26   36 1   
    37   26   37 1   
    38   27   38 1   
    39   27   39 1   
    40   27   40 1   
    41   41   42 1   
    42   41   49 1   
    43   42   43 1   
    44   42   45 1   
    45   42   50 1   
    46   43   44 2   
    47   43   53 1   
    48   45   46 1   
    49   45   51 1   
    50   45   52 1   
    51   46   47 1   
    52   46   48 1   
    53   53   54 1   
    54   53   57 1   
    55   54   55 1   
    56   54   58 1   
    57   54   59 1   
    58   55   56 2   
    59   55   60 1   
    60   60   61 1   
    61   60   68 1   
    62   61   62 1   
    63   61   64 1   
    64   61   69 1   
    65   62   63 2   
    66   62   74 1   
    67   64   65 1   
    68   64   70 1   
    69   64   71 1   
    70   65   66 1   
    71   65   67 2   
    72   66   72 1   
    73   66   73 1   
    74   74   75 1   
    75   74   78 1   
    76   75   76 1   
    77   75   79 1   
    78   75   80 1   
    79   76   77 2   
    80   76   81 1   
    81   81   82 1   
    82   81   93 1   
    83   82   83 1   
    84   82   85 1   
    85   82   94 1   
    86   83   84 2   
    87   83  102 1   
    88   85   86 1   
    89   85   95 1   
    90   85   96 1   
    91   86   87 ar  
    92   86   88 ar  
    93   87   89 ar  
    94   87   97 1   
    95   88   90 ar  
    96   88   98 1   
    97   89   91 ar  
    98   89   99 1   
    99   90   91 ar  
   100   90  100 1   
   101   91   92 1   
   102   92  101 1   
   103  102  103 1   
   104  102  110 1   
   105  103  104 1   
   106  103  106 1   
   107  103  111 1   
   108  104  105 2   
   109  104  121 1   
   110  106  107 1   
   111  106  108 1   
   112  106  112 1   
   113  107  109 1   
   114  107  113 1   
   115  107  114 1   
   116  108  115 1   
   117  108  116 1   
   118  108  117 1   
   119  109  118 1   
   120  109  119 1   
   121  109  120 1   
   122  121  122 1   
   123  121  127 1   
   124  122  123 1   
   125  122  125 1   
   126  122  128 1   
   127  123  124 2   
   128  123  132 1   
   129  125  126 1   
   130  125  129 1   
   131  125  130 1   
   132  126  131 1   
   133  132  133 1   
   134  132  137 1   
   135  133  134 1   
   136  133  136 1   
   137  133  138 1   
   138  134  135 2   
   139  134  142 1   
   140  136  139 1   
   141  136  140 1   
   142  136  141 1   
   143  142  143 1   
   144  142  147 1   
   145  143  144 1   
   146  143  146 1   
   147  143  148 1   
   148  144  145 2   
   149  144  152 1   
   150  146  149 1   
   151  146  150 1   
   152  146  151 1   
   153  152  153 1   
   154  152  161 1   
   155  153  154 1   
   156  153  156 1   
   157  153  162 1   
   158  154  155 2   
   159  154  167 1   
   160  156  157 1   
   161  156  163 1   
   162  156  164 1   
   163  157  158 1   
   164  157  165 1   
   165  157  166 1   
   166  158  159 1   
   167  158  160 1   
   168  167  168 1   
   169  167  172 1   
   170  168  169 1   
   171  168  170 1   
   172  168  171 1   
   173  174  175 1   
   174  174  176 1   
   175  177  178 1   
   176  177  179 1   
   177  180  181 1   
   178  180  182 1   
   179  183  184 1   
   180  183  185 1   
@<TRIPOS>SUBSTRUCTURE
     1 MOL         1 TEMP              0 ****  ****    0 ROOT
