@<TRIPOS>MOLECULE
MOL
  195   189     1     0     0
SMALL
resp


@<TRIPOS>ATOM
      1 C1         -0.3490   -8.0640   -1.5000 c3        1 MOL     -0.249186
      2 C2         -0.7610   -6.6090   -1.4640 c         1 MOL      0.687450
      3 O1         -0.4970   -6.0280   -2.4650 o         1 MOL     -0.537490
      4 H1         -1.1940   -8.6880   -1.2080 hc        1 MOL      0.056168
      5 H2         -0.0330   -8.3280   -2.5090 hc        1 MOL      0.056168
      6 H3          0.4770   -8.2250   -0.8060 hc        1 MOL      0.056168
      7 N1         -1.3870   -6.0460   -0.3640 n         1 MOL     -0.592278
      8 C3         -1.5640   -4.5940   -0.2010 c3        1 MOL      0.177868
      9 C4         -0.2680   -3.8600    0.0590 c         1 MOL      0.173685
     10 O2         -0.1690   -2.6440   -0.2700 o         1 MOL     -0.290509
     11 C5         -2.5940   -4.3540    0.9630 c3        1 MOL     -0.262517
     12 C6         -2.1970   -5.1100    2.2790 c         1 MOL      0.710079
     13 O3         -1.6230   -4.4850    3.2050 o         1 MOL     -0.724084
     14 O4         -2.3990   -6.3430    2.3210 o         1 MOL     -0.724084
     15 H4         -1.3950   -6.6710    0.4330 hn        1 MOL      0.307708
     16 H5         -2.0720   -4.1980   -1.0730 h1        1 MOL      0.071225
     17 H6         -3.5720   -4.6640    0.6050 hc        1 MOL      0.058528
     18 H7         -2.6710   -3.2860    1.1460 hc        1 MOL      0.058528
     19 N2          0.7430   -4.5740    0.6960 n         1 MOL     -0.254984
     20 C7          2.0270   -3.8610    0.9590 c3        1 MOL      0.041781
     21 C8          2.8630   -3.7460   -0.3100 c         1 MOL      0.577211
     22 O5          2.9460   -4.6050   -1.1680 o         1 MOL     -0.554782
     23 C9          2.8120   -4.5580    2.1510 c3        1 MOL     -0.463684
     24 C10         2.1180   -4.1520    3.5070 c3        1 MOL      0.126033
     25 C11         2.9120   -4.5740    4.7490 c3        1 MOL     -0.071131
     26 C12         2.1520   -4.1650    6.0020 c3        1 MOL     -0.093296
     27 N3          1.1870   -5.1280    6.4310 n4        1 MOL     -0.195545
     28 H8          0.6250   -5.5700    0.7700 hn        1 MOL      0.282694
     29 H9          1.7390   -2.8630    1.2920 h1        1 MOL      0.128031
     30 H10         3.8610   -4.2750    2.1100 hc        1 MOL      0.144576
     31 H11         2.6120   -5.6260    1.9970 hc        1 MOL      0.144576
     32 H12         1.1170   -4.6040    3.4730 hc        1 MOL      0.021995
     33 H13         1.9420   -3.0900    3.6300 hc        1 MOL      0.021995
     34 H14         3.7900   -3.9410    4.6710 hc        1 MOL      0.059366
     35 H15         3.2320   -5.6260    4.7530 hc        1 MOL      0.059366
     36 H16         1.6320   -3.2220    5.8150 hx        1 MOL      0.111580
     37 H17         2.8850   -4.0580    6.8000 hx        1 MOL      0.111580
     38 H18         0.5710   -4.6490    7.0720 hn        1 MOL      0.284397
     39 H19         0.5600   -5.4030    5.6910 hn        1 MOL      0.284397
     40 H20         1.5110   -5.9700    6.8830 hn        1 MOL      0.284397
     41 N4          3.4160   -2.5670   -0.5640 n         1 MOL     -0.518307
     42 C13         3.6630   -1.3380    0.2520 c3        1 MOL      0.020862
     43 C14         4.4780   -1.5970    1.5030 c         1 MOL      0.550604
     44 O6          3.9360   -1.5980    2.5920 o         1 MOL     -0.579098
     45 C15         2.4380   -0.3990    0.3450 c3        1 MOL     -0.334959
     46 C16         1.7930    0.0210   -0.9520 c         1 MOL      0.667474
     47 O7          2.3190   -0.0510   -2.0390 o         1 MOL     -0.716861
     48 O8          0.6130    0.4940   -0.8920 o         1 MOL     -0.716861
     49 H21         3.7800   -2.6070   -1.4980 hn        1 MOL      0.316298
     50 H22         4.3700   -0.8130   -0.3940 h1        1 MOL      0.106166
     51 H23         2.8250    0.4970    0.8430 hc        1 MOL      0.119994
     52 H24         1.6670   -0.9170    0.9220 hc        1 MOL      0.119994
     53 N5          5.7040   -2.1170    1.4150 n         1 MOL     -0.465974
     54 C17         6.7110   -1.8210    0.4220 c3        1 MOL      0.022032
     55 C18         7.8590   -0.9600    1.0070 c         1 MOL      0.687248
     56 O9          7.8320   -0.5460    2.1140 o         1 MOL     -0.562485
     57 H25         6.0240   -2.4820    2.3050 hn        1 MOL      0.323487
     58 H26         6.3810   -1.4200   -0.5380 h1        1 MOL      0.066375
     59 H27         7.1030   -2.7900    0.1340 h1        1 MOL      0.066375
     60 N6          8.8730   -0.6800    0.1820 n         1 MOL     -0.636282
     61 C19         8.8450   -0.8240   -1.2650 c3        1 MOL      0.034870
     62 C20         8.0930    0.3690   -1.9190 c         1 MOL      0.458578
     63 O10         7.9940    0.5300   -3.1200 o         1 MOL     -0.524116
     64 C21        10.2740   -0.9910   -1.9110 c3        1 MOL     -0.177631
     65 C22        11.2120   -1.9430   -1.3020 c         1 MOL      0.724599
     66 O11        12.4060   -1.6370   -1.1390 o         1 MOL     -0.641495
     67 O12        10.7890   -3.0930   -1.0590 o         1 MOL     -0.641495
     68 H28         9.5450   -0.0170    0.5510 hn        1 MOL      0.360751
     69 H29         8.3780   -1.7980   -1.3990 h1        1 MOL      0.068361
     70 H30        10.6860    0.0180   -1.7940 hc        1 MOL      0.051350
     71 H31        10.0410   -1.1340   -2.9690 hc        1 MOL      0.051350
     72 N7          7.6280    1.3390   -1.1120 n         1 MOL     -0.137764
     73 C23         6.7160    2.4090   -1.4660 c3        1 MOL     -0.391275
     74 C24         5.9940    3.1150   -0.3090 c         1 MOL      0.758205
     75 O13         6.3700    2.9800    0.8360 o         1 MOL     -0.513414
     76 H32         7.8250    1.1620   -0.1310 hn        1 MOL      0.146217
     77 H33         6.0090    2.0340   -2.2070 h1        1 MOL      0.141237
     78 H34         7.2410    3.1920   -2.0120 h1        1 MOL      0.141237
     79 N8          4.9270    3.8290   -0.6120 n         1 MOL     -0.788141
     80 C25         4.1450    4.6900    0.3070 c3        1 MOL      0.424145
     81 C26         2.6870    4.2410    0.6350 c         1 MOL      0.462449
     82 O14         2.1270    3.5120   -0.1410 o         1 MOL     -0.504012
     83 C27         4.0320    6.0800   -0.2340 c3        1 MOL      0.414324
     84 C28         2.8930    6.2310   -1.1850 c3        1 MOL     -0.402291
     85 O15         5.2580    6.5540   -0.9380 oh        1 MOL     -0.655238
     86 H35         4.8230    3.9470   -1.6110 hn        1 MOL      0.330132
     87 H36         4.6930    4.7500    1.2450 h1        1 MOL     -0.030972
     88 H37         3.8580    6.7610    0.6030 h1        1 MOL     -0.007193
     89 H38         5.0590    6.5700   -1.8800 ho        1 MOL      0.396902
     90 H39         1.9630    6.1690   -0.6190 hc        1 MOL      0.091102
     91 H40         2.9530    7.2390   -1.5900 hc        1 MOL      0.091102
     92 H41         3.0150    5.5130   -1.9920 hc        1 MOL      0.091102
     93 N9          2.1020    4.5640    1.7480 n         1 MOL     -0.522697
     94 C29         0.7790    4.0110    2.1650 c3        1 MOL      0.011080
     95 C30        -0.3300    5.0430    1.9600 c         1 MOL      0.457247
     96 O16        -0.2590    6.1920    2.5510 o         1 MOL     -0.532929
     97 C31         0.7980    3.3880    3.6160 c3        1 MOL      0.102952
     98 C32         1.6760    2.1220    3.6020 c3        1 MOL     -0.045760
     99 C33        -0.6300    3.0970    4.1550 c3        1 MOL     -0.292055
    100 C34         2.1940    1.5400    4.8610 c3        1 MOL     -0.208540
    101 H42         2.6170    5.2180    2.3150 hn        1 MOL      0.289107
    102 H43         0.5840    3.1490    1.5370 h1        1 MOL      0.063952
    103 H44         1.3950    4.0590    4.2310 hc        1 MOL      0.041626
    104 H45         2.5310    2.2760    2.9500 hc        1 MOL      0.076578
    105 H46         1.1820    1.2910    3.0980 hc        1 MOL      0.076578
    106 H47        -0.4820    2.5700    5.1010 hc        1 MOL      0.069384
    107 H48        -1.3040    3.9170    4.4060 hc        1 MOL      0.069384
    108 H49        -1.0400    2.3260    3.5070 hc        1 MOL      0.069384
    109 H50         1.4880    0.9280    5.4360 hc        1 MOL      0.056521
    110 H51         3.0710    0.9230    4.6870 hc        1 MOL      0.056521
    111 H52         2.5300    2.3680    5.4890 hc        1 MOL      0.056521
    112 N10        -1.2880    4.6970    1.1550 n         1 MOL     -0.281832
    113 C35        -2.5380    5.5450    0.9580 c3        1 MOL     -0.220183
    114 C36        -3.8170    4.7200    0.8840 c         1 MOL      0.568902
    115 O17        -4.8580    5.2550    0.5080 o         1 MOL     -0.542325
    116 C37        -2.3840    6.4940   -0.2610 c3        1 MOL      0.376516
    117 C38        -2.0510    5.7110   -1.5410 c3        1 MOL      0.023538
    118 O18        -1.5170    7.6210   -0.0250 oh        1 MOL     -0.610085
    119 H53        -1.2750    3.7900    0.7130 hn        1 MOL      0.313278
    120 H54        -2.6440    6.1760    1.8350 h1        1 MOL      0.126928
    121 H55        -3.3730    6.9210   -0.4330 h1        1 MOL     -0.022158
    122 H56        -1.9230    8.0350    0.7440 ho        1 MOL      0.383973
    123 H57        -2.7160    4.8550   -1.6320 hc        1 MOL     -0.002988
    124 H58        -2.0900    6.3270   -2.4380 hc        1 MOL     -0.002988
    125 H59        -1.0380    5.2900   -1.4980 hc        1 MOL     -0.002988
    126 N11        -3.7500    3.4470    1.0780 n         1 MOL     -0.428810
    127 C39        -4.8870    2.5740    1.1600 c3        1 MOL      0.108723
    128 C40        -5.5390    2.3120   -0.1560 c         1 MOL      0.429565
    129 O19        -4.9630    2.6850   -1.2200 o         1 MOL     -0.435419
    130 C41        -5.8450    3.0490    2.3190 c3        1 MOL      0.097991
    131 C42        -5.0510    3.1920    3.6500 c3        1 MOL     -0.372199
    132 O20        -6.7550    2.0290    2.6770 oh        1 MOL     -0.504556
    133 H60        -2.8360    3.0480    1.2670 hn        1 MOL      0.256390
    134 H61        -4.5080    1.6050    1.4830 h1        1 MOL      0.119915
    135 H62        -6.3710    3.9740    2.0730 h1        1 MOL      0.088357
    136 H63        -7.5340    2.5800    2.8120 ho        1 MOL      0.372524
    137 H64        -4.5730    2.2410    3.8770 hc        1 MOL      0.110126
    138 H65        -4.3490    4.0230    3.7130 hc        1 MOL      0.110126
    139 H66        -5.6880    3.1460    4.5330 hc        1 MOL      0.110126
    140 N12        -6.6040    1.5030   -0.0930 n         1 MOL     -0.355683
    141 C43        -7.4330    1.1050   -1.3280 c3        1 MOL     -0.085749
    142 C44        -6.9670   -0.1560   -2.0270 c         1 MOL      0.574048
    143 O21        -7.3680   -0.5360   -3.1080 o         1 MOL     -0.542422
    144 C45        -8.9730    1.0380   -1.0060 c3        1 MOL     -0.113189
    145 C46        -9.1710    0.1440    0.2010 c3        1 MOL      0.085803
    146 C47       -10.6460    0.1460    0.5760 c3        1 MOL      0.036156
    147 C48       -10.7810   -0.9740    1.5510 c3        1 MOL      0.040193
    148 N13       -12.1410   -0.9780    2.3180 n4        1 MOL     -0.199525
    149 H67        -6.9270    1.2670    0.8370 hn        1 MOL      0.186187
    150 H68        -7.1840    1.8810   -2.0480 h1        1 MOL      0.126143
    151 H69        -9.4800    0.5630   -1.8290 hc        1 MOL      0.061198
    152 H70        -9.4560    1.9990   -0.8090 hc        1 MOL      0.061198
    153 H71        -8.6160    0.4170    1.1000 hc        1 MOL     -0.008065
    154 H72        -8.9660   -0.8710   -0.1380 hc        1 MOL     -0.008065
    155 H73       -11.2830   -0.0190   -0.2920 hc        1 MOL      0.007897
    156 H74       -10.8980    1.1060    1.0380 hc        1 MOL      0.007897
    157 H75        -9.9520   -0.9090    2.2500 hx        1 MOL      0.076132
    158 H76       -10.7220   -1.9280    1.0370 hx        1 MOL      0.076132
    159 H77       -12.8500   -0.8120    1.6270 hn        1 MOL      0.214172
    160 H78       -12.3110   -1.8950    2.6910 hn        1 MOL      0.214172
    161 H79       -12.2750   -0.3480    3.1020 hn        1 MOL      0.214172
    162 N14        -6.1430   -0.9190   -1.2830 n         1 MOL     -0.350485
    163 C49        -5.4520   -2.0500   -1.8500 c3        1 MOL     -0.157500
    164 C50        -6.1950   -3.3280   -1.7340 c         1 MOL      0.423690
    165 O22        -6.0660   -4.1590   -0.8470 o         1 MOL     -0.505671
    166 C51        -4.0060   -2.1960   -1.2800 c3        1 MOL      0.182067
    167 C52        -3.1400   -0.9150   -1.2340 c3        1 MOL      0.197175
    168 C53        -2.8250   -0.3220   -2.6210 c         1 MOL      0.711851
    169 O23        -2.1070    0.6890   -2.6840 o         1 MOL     -0.776364
    170 O24        -3.2000   -0.8680   -3.6980 o         1 MOL     -0.776364
    171 H80        -5.9150   -0.7470   -0.3150 hn        1 MOL      0.230610
    172 H81        -5.1770   -1.8510   -2.8860 h1        1 MOL      0.160796
    173 H82        -3.5810   -2.9410   -1.9450 hc        1 MOL      0.009942
    174 H83        -4.0750   -2.5150   -0.2330 hc        1 MOL      0.009942
    175 H84        -2.1730   -1.2110   -0.8180 hc        1 MOL     -0.119629
    176 H85        -3.5510   -0.1210   -0.6080 hc        1 MOL     -0.119629
    177 N15        -7.0250   -3.4540   -2.7630 n         1 MOL     -0.284042
    178 C54        -7.8270   -4.7100   -3.1670 c3        1 MOL     -0.073214
    179 H86        -8.8920   -4.5170   -3.0370 h1        1 MOL      0.066856
    180 H87        -7.6250   -4.9510   -4.2100 h1        1 MOL      0.066856
    181 H88        -7.5320   -5.5490   -2.5360 h1        1 MOL      0.066856
    182 H89        -6.9820   -2.7380   -3.4680 hn        1 MOL      0.249792
    183 Ca1         0.2610    0.7150   -3.6540 Ca        1 MOL      1.720089
    184 O25         2.6300    1.5200   -4.6280 oh        1 MOL     -0.862032
    185 H90         3.1690    1.9230   -3.9490 ho        1 MOL      0.417170
    186 H91         3.2170    0.9460   -5.1060 ho        1 MOL      0.417170
    187 O26        -0.0920   -1.9470   -2.8650 oh        1 MOL     -0.862032
    188 H92        -0.1620   -2.0510   -1.9110 ho        1 MOL      0.417170
    189 H93         0.5680   -2.5910   -3.1260 ho        1 MOL      0.417170
    190 O27         0.4470    3.3240   -2.5840 oh        1 MOL     -0.862032
    191 H94         1.0250    3.5540   -1.8670 ho        1 MOL      0.417170
    192 H95         0.5090    4.0590   -3.1950 ho        1 MOL      0.417170
    193 O28        -1.3250   -0.6160   -5.3710 oh        1 MOL     -0.862032
    194 H96        -2.1140   -0.7250   -4.8390 ho        1 MOL      0.417170
    195 H97        -1.6310   -0.2460   -6.1930 ho        1 MOL      0.417170
@<TRIPOS>BOND
     1    1    2 1   
     2    1    4 1   
     3    1    5 1   
     4    1    6 1   
     5    2    3 2   
     6    2    7 1   
     7    7    8 1   
     8    7   15 1   
     9    8    9 1   
    10    8   11 1   
    11    8   16 1   
    12    9   10 2   
    13    9   19 1   
    14   11   12 1   
    15   11   17 1   
    16   11   18 1   
    17   12   13 1   
    18   12   14 1   
    19   19   20 1   
    20   19   28 1   
    21   20   21 1   
    22   20   23 1   
    23   20   29 1   
    24   21   22 2   
    25   21   41 1   
    26   23   24 1   
    27   23   30 1   
    28   23   31 1   
    29   24   25 1   
    30   24   32 1   
    31   24   33 1   
    32   25   26 1   
    33   25   34 1   
    34   25   35 1   
    35   26   27 1   
    36   26   36 1   
    37   26   37 1   
    38   27   38 1   
    39   27   39 1   
    40   27   40 1   
    41   41   42 1   
    42   41   49 1   
    43   42   43 1   
    44   42   45 1   
    45   42   50 1   
    46   43   44 2   
    47   43   53 1   
    48   45   46 1   
    49   45   51 1   
    50   45   52 1   
    51   46   47 1   
    52   46   48 1   
    53   53   54 1   
    54   53   57 1   
    55   54   55 1   
    56   54   58 1   
    57   54   59 1   
    58   55   56 2   
    59   55   60 1   
    60   60   61 1   
    61   60   68 1   
    62   61   62 1   
    63   61   64 1   
    64   61   69 1   
    65   62   63 2   
    66   62   72 1   
    67   64   65 1   
    68   64   70 1   
    69   64   71 1   
    70   65   66 1   
    71   65   67 1   
    72   72   73 1   
    73   72   76 1   
    74   73   74 1   
    75   73   77 1   
    76   73   78 1   
    77   74   75 2   
    78   74   79 1   
    79   79   80 1   
    80   79   86 1   
    81   80   81 1   
    82   80   83 1   
    83   80   87 1   
    84   81   82 2   
    85   81   93 1   
    86   83   84 1   
    87   83   85 1   
    88   83   88 1   
    89   84   90 1   
    90   84   91 1   
    91   84   92 1   
    92   85   89 1   
    93   93   94 1   
    94   93  101 1   
    95   94   95 1   
    96   94   97 1   
    97   94  102 1   
    98   95   96 2   
    99   95  112 1   
   100   97   98 1   
   101   97   99 1   
   102   97  103 1   
   103   98  100 1   
   104   98  104 1   
   105   98  105 1   
   106   99  106 1   
   107   99  107 1   
   108   99  108 1   
   109  100  109 1   
   110  100  110 1   
   111  100  111 1   
   112  112  113 1   
   113  112  119 1   
   114  113  114 1   
   115  113  116 1   
   116  113  120 1   
   117  114  115 2   
   118  114  126 1   
   119  116  117 1   
   120  116  118 1   
   121  116  121 1   
   122  117  123 1   
   123  117  124 1   
   124  117  125 1   
   125  118  122 1   
   126  126  127 1   
   127  126  133 1   
   128  127  128 1   
   129  127  130 1   
   130  127  134 1   
   131  128  129 2   
   132  128  140 1   
   133  130  131 1   
   134  130  132 1   
   135  130  135 1   
   136  131  137 1   
   137  131  138 1   
   138  131  139 1   
   139  132  136 1   
   140  140  141 1   
   141  140  149 1   
   142  141  142 1   
   143  141  144 1   
   144  141  150 1   
   145  142  143 2   
   146  142  162 1   
   147  144  145 1   
   148  144  151 1   
   149  144  152 1   
   150  145  146 1   
   151  145  153 1   
   152  145  154 1   
   153  146  147 1   
   154  146  155 1   
   155  146  156 1   
   156  147  148 1   
   157  147  157 1   
   158  147  158 1   
   159  148  159 1   
   160  148  160 1   
   161  148  161 1   
   162  162  163 1   
   163  162  171 1   
   164  163  164 1   
   165  163  166 1   
   166  163  172 1   
   167  164  165 2   
   168  164  177 1   
   169  166  167 1   
   170  166  173 1   
   171  166  174 1   
   172  167  168 1   
   173  167  175 1   
   174  167  176 1   
   175  168  169 1   
   176  168  170 1   
   177  177  178 1   
   178  177  182 1   
   179  178  179 1   
   180  178  180 1   
   181  178  181 1   
   182  184  185 1   
   183  184  186 1   
   184  187  188 1   
   185  187  189 1   
   186  190  191 1   
   187  190  192 1   
   188  193  194 1   
   189  193  195 1   
@<TRIPOS>SUBSTRUCTURE
     1 MOL         1 TEMP              0 ****  ****    0 ROOT
