@<TRIPOS>MOLECULE
MOL
  179   176     1     0     0
SMALL
resp


@<TRIPOS>ATOM
      1 C1          0.4870   -3.6330    6.0320 c3        1 MOL     -0.460091
      2 C2          0.6490   -3.5060    4.4560 c         1 MOL      0.625863
      3 O1         -0.3260   -3.5620    3.6330 o         1 MOL     -0.574391
      4 H1         -0.0960   -4.5240    6.2660 hc        1 MOL      0.141483
      5 H2          1.4720   -3.7120    6.4940 hc        1 MOL      0.141483
      6 H3         -0.0260   -2.7520    6.4180 hc        1 MOL      0.141483
      7 N1          1.8590   -3.4100    3.9510 n         1 MOL     -0.387912
      8 C3          2.0940   -3.1240    2.5230 c3        1 MOL      0.031002
      9 C4          2.2520   -4.4260    1.7270 c         1 MOL      0.478713
     10 O2          2.6610   -5.4360    2.3000 o         1 MOL     -0.536677
     11 C5          3.2810   -2.1340    2.4990 c3        1 MOL     -0.142642
     12 C6          3.4440   -1.3960    1.1550 c         1 MOL      0.736181
     13 O3          4.0690   -0.3410    1.1600 o         1 MOL     -0.731339
     14 O4          3.0070   -1.8920    0.0970 o         1 MOL     -0.731339
     15 H4          2.6050   -3.6910    4.5800 hn        1 MOL      0.282907
     16 H5          1.2380   -2.6090    2.1000 h1        1 MOL     -0.018281
     17 H6          4.1650   -2.6900    2.8220 hc        1 MOL      0.073318
     18 H7          3.1420   -1.4290    3.3150 hc        1 MOL      0.073318
     19 N2          1.8520   -4.3840    0.4700 n         1 MOL     -0.247016
     20 C7          2.0080   -5.4300   -0.5220 c3        1 MOL     -0.011305
     21 C8          3.2780   -5.2970   -1.3810 c         1 MOL      0.428877
     22 O5          3.7890   -6.2560   -1.9440 o         1 MOL     -0.522979
     23 C9          0.7790   -5.5300   -1.4160 c3        1 MOL     -0.050784
     24 C10        -0.5130   -5.8550   -0.6930 c3        1 MOL     -0.159021
     25 C11        -1.7780   -5.8000   -1.6370 c3        1 MOL     -0.007541
     26 C12        -2.0720   -7.2020   -2.1440 c3        1 MOL      0.013748
     27 N3         -3.2800   -7.1710   -3.0140 n4        1 MOL     -0.236969
     28 H8          1.4540   -3.5030    0.1800 hn        1 MOL      0.285885
     29 H9          2.1860   -6.3670   -0.0090 h1        1 MOL      0.108412
     30 H10         0.9850   -6.3780   -2.0730 hc        1 MOL      0.037249
     31 H11         0.6980   -4.6370   -2.0340 hc        1 MOL      0.037249
     32 H12        -0.7130   -5.0670    0.0430 hc        1 MOL      0.075920
     33 H13        -0.4220   -6.8190   -0.2040 hc        1 MOL      0.075920
     34 H14        -1.7270   -5.1690   -2.5320 hc        1 MOL      0.051471
     35 H15        -2.6540   -5.4440   -1.0910 hc        1 MOL      0.051471
     36 H16        -2.2650   -7.7920   -1.2500 hx        1 MOL      0.086147
     37 H17        -1.2120   -7.5950   -2.6830 hx        1 MOL      0.086147
     38 H18        -3.6610   -8.0920   -3.2070 hn        1 MOL      0.248301
     39 H19        -4.0320   -6.6770   -2.5690 hn        1 MOL      0.248301
     40 H20        -3.1170   -6.7230   -3.9060 hn        1 MOL      0.248301
     41 N4          3.8200   -4.0440   -1.5800 n         1 MOL     -0.214424
     42 C13         5.0000   -3.7660   -2.2510 c3        1 MOL      0.005103
     43 C14         6.1760   -3.4130   -1.3690 c         1 MOL      0.517930
     44 O6          7.3100   -3.4810   -1.6950 o         1 MOL     -0.540959
     45 C15         4.7930   -2.8330   -3.4070 c3        1 MOL     -0.178410
     46 C16         4.2130   -1.4720   -2.9550 c         1 MOL      0.657187
     47 O7          4.9010   -0.8930   -2.0600 o         1 MOL     -0.726130
     48 O8          2.9920   -1.2730   -3.0690 o         1 MOL     -0.726130
     49 H21         3.3020   -3.2450   -1.2420 hn        1 MOL      0.221148
     50 H22         5.3870   -4.6710   -2.7110 h1        1 MOL      0.102007
     51 H23         4.1670   -3.2890   -4.1620 hc        1 MOL      0.054474
     52 H24         5.7030   -2.6010   -3.9590 hc        1 MOL      0.054474
     53 N5          5.9250   -2.9300   -0.1130 n         1 MOL     -0.228512
     54 C17         6.9380   -2.4830    0.8430 c3        1 MOL     -0.173402
     55 C18         7.3590   -1.0070    0.8330 c         1 MOL      0.516652
     56 O9          8.1050   -0.6490    1.7940 o         1 MOL     -0.562654
     57 H25         4.9840   -2.6500    0.1420 hn        1 MOL      0.013868
     58 H26         7.8750   -3.0110    0.6740 h1        1 MOL      0.122566
     59 H27         6.6170   -2.7690    1.8380 h1        1 MOL      0.122566
     60 N6          6.9320   -0.1830   -0.1290 n         1 MOL     -0.159296
     61 C19         7.4820    1.2180   -0.2200 c3        1 MOL      0.032597
     62 C20         6.4190    2.3380   -0.1960 c         1 MOL      0.638920
     63 O10         5.2890    1.9900   -0.6260 o         1 MOL     -0.644166
     64 C21         8.3410    1.3390   -1.4780 c3        1 MOL     -0.275646
     65 C22         9.5840    0.4920   -1.4350 c         1 MOL      0.643329
     66 N7          9.7580   -0.2790   -2.4680 n         1 MOL     -0.794566
     67 O11        10.4080    0.4680   -0.4850 o         1 MOL     -0.526635
     68 H28         6.2270   -0.5360   -0.7550 hn        1 MOL      0.216423
     69 H29         8.1270    1.4130    0.6390 h1        1 MOL      0.043234
     70 H30         8.6800    2.3760   -1.4700 hc        1 MOL      0.053239
     71 H31         7.7560    1.0700   -2.3540 hc        1 MOL      0.053239
     72 H32         8.9250   -0.3720   -3.0480 hn        1 MOL      0.387180
     73 H33        10.6320   -0.7410   -2.6410 hn        1 MOL      0.387180
     74 N8          6.6200    3.5800    0.2070 n         1 MOL     -0.484906
     75 C23         5.6640    4.6860    0.0550 c3        1 MOL     -0.061117
     76 C24         4.4950    4.5710    0.9340 c         1 MOL      0.599050
     77 O12         4.4700    4.1930    2.0910 o         1 MOL     -0.476929
     78 H34         7.5150    3.7000    0.6620 hn        1 MOL      0.334864
     79 H35         5.4390    4.6220   -1.0130 h1        1 MOL      0.100162
     80 H36         6.2040    5.6370    0.1170 h1        1 MOL      0.100162
     81 N9          3.3730    4.9790    0.2890 n         1 MOL     -0.610123
     82 C25         1.9440    4.6640    0.7100 c3        1 MOL      0.186000
     83 C26         1.6910    3.2290    1.0740 c         1 MOL      0.409867
     84 O13         2.4430    2.3600    0.6320 o         1 MOL     -0.375239
     85 C27         1.0060    5.2920   -0.3660 c3        1 MOL     -0.275613
     86 C28         1.0550    6.8010   -0.5980 ca        1 MOL      0.116439
     87 C29         0.8590    7.7310    0.4990 ca        1 MOL     -0.149842
     88 C30         1.1100    7.3470   -1.8990 ca        1 MOL     -0.149842
     89 C31         0.9010    9.1520    0.2710 ca        1 MOL     -0.322066
     90 C32         1.1800    8.7580   -2.1270 ca        1 MOL     -0.322066
     91 C33         1.0530    9.6470   -1.0380 ca        1 MOL      0.424387
     92 O14         1.0260   10.9850   -1.1710 oh        1 MOL     -0.505438
     93 H37         3.5590    5.3070   -0.6490 hn        1 MOL      0.279254
     94 H38         1.7850    5.3130    1.5670 h1        1 MOL      0.070555
     95 H39        -0.0470    5.1350   -0.1140 hc        1 MOL      0.098888
     96 H40         1.1330    4.6530   -1.2370 hc        1 MOL      0.098888
     97 H41         0.8790    7.2580    1.4670 ha        1 MOL      0.128368
     98 H42         1.1440    6.6920   -2.7640 ha        1 MOL      0.128368
     99 H43         0.7260    9.8650    1.0590 ha        1 MOL      0.177545
    100 H44         1.2670    9.1290   -3.1370 ha        1 MOL      0.177545
    101 H45         0.7270   11.4320   -0.3780 ho        1 MOL      0.379559
    102 N10         0.7180    2.9510    1.9600 n         1 MOL     -0.471728
    103 C34         0.2010    1.6880    2.4630 c3        1 MOL      0.006268
    104 C35        -0.0800    0.6830    1.3330 c         1 MOL      0.424004
    105 O15         0.8880    0.3300    0.5900 o         1 MOL     -0.470904
    106 C36         1.1870    1.1560    3.5300 c3        1 MOL      0.311655
    107 C37         0.7310   -0.1920    4.2470 c3        1 MOL     -0.097055
    108 C38         1.5190    2.2200    4.6170 c3        1 MOL     -0.454447
    109 C39        -0.6840   -0.1000    4.9530 c3        1 MOL     -0.067462
    110 H46         0.1490    3.7130    2.3020 hn        1 MOL      0.291768
    111 H47        -0.7510    1.8210    2.9740 h1        1 MOL      0.056671
    112 H48         2.1320    0.9200    3.0400 hc        1 MOL      0.030401
    113 H49         1.5110   -0.5440    4.9250 hc        1 MOL      0.021121
    114 H50         0.6100   -0.9050    3.4250 hc        1 MOL      0.021121
    115 H51         0.6470    2.5010    5.2140 hc        1 MOL      0.112085
    116 H52         2.2810    1.8690    5.3070 hc        1 MOL      0.112085
    117 H53         1.9280    3.1010    4.1250 hc        1 MOL      0.112085
    118 H54        -0.7710    0.8050    5.5630 hc        1 MOL      0.015706
    119 H55        -1.4790   -0.0830    4.2180 hc        1 MOL      0.015706
    120 H56        -0.9030   -0.9580    5.6020 hc        1 MOL      0.015706
    121 N11        -1.3330    0.2820    1.0470 n         1 MOL     -0.343430
    122 C40        -1.7020   -0.8550    0.1350 c3        1 MOL     -0.349402
    123 C41        -3.1800   -0.9020   -0.3460 c         1 MOL      0.759407
    124 O16        -3.5110   -1.6700   -1.2940 o         1 MOL     -0.609545
    125 C42        -1.4240   -2.2340    0.8360 c3        1 MOL      0.336339
    126 O17        -2.0210   -2.4080    2.1350 oh        1 MOL     -0.612083
    127 H57        -2.0090    0.6120    1.7170 hn        1 MOL      0.287938
    128 H58        -1.0710   -0.8170   -0.7530 h1        1 MOL      0.146743
    129 H59        -0.3570   -2.4510    0.9070 h1        1 MOL     -0.025127
    130 H60        -1.9400   -3.0230    0.2980 h1        1 MOL     -0.025127
    131 H61        -1.3360   -2.6530    2.7620 ho        1 MOL      0.398100
    132 N12        -4.0290   -0.0750    0.1580 n         1 MOL     -0.467089
    133 C43        -5.4500    0.0760   -0.2780 c3        1 MOL      0.027552
    134 C44        -5.6740    0.5930   -1.7690 c         1 MOL      0.606879
    135 O18        -4.7740    1.1660   -2.3320 o         1 MOL     -0.536333
    136 C45        -6.1500    0.9510    0.7030 c3        1 MOL     -0.250189
    137 H62        -3.6580    0.6220    0.7920 hn        1 MOL      0.261055
    138 H63        -5.8410   -0.9380   -0.1410 h1        1 MOL      0.103337
    139 H64        -7.1970    0.9950    0.4070 hc        1 MOL      0.090818
    140 H65        -6.1340    0.5610    1.7300 hc        1 MOL      0.090818
    141 H66        -5.7630    1.9680    0.7660 hc        1 MOL      0.090818
    142 N13        -6.8590    0.3090   -2.4200 n         1 MOL     -0.570671
    143 C46        -7.9980   -0.4460   -1.9540 c3        1 MOL      0.339530
    144 C47        -9.3020    0.2230   -2.5450 c         1 MOL      0.320164
    145 O19        -9.2430    0.5700   -3.7080 o         1 MOL     -0.499870
    146 C48        -7.9540   -1.8840   -2.4140 c3        1 MOL     -0.140111
    147 H67        -6.9820    0.8060   -3.2940 hn        1 MOL      0.310949
    148 H68        -8.0370   -0.4620   -0.8620 h1        1 MOL     -0.019085
    149 H69        -7.0010   -2.2810   -2.0910 hc        1 MOL      0.041863
    150 H70        -8.7190   -2.5290   -1.9790 hc        1 MOL      0.041863
    151 H71        -7.8980   -1.9830   -3.4990 hc        1 MOL      0.041863
    152 N14       -10.4330    0.3800   -1.8600 n         1 MOL     -0.348230
    153 C49       -10.7890    0.0440   -0.4510 c3        1 MOL     -0.115216
    154 C50       -10.2060    1.1460    0.4490 c         1 MOL      0.463147
    155 O20        -9.6430    0.8680    1.5220 o         1 MOL     -0.527126
    156 C51       -12.3320    0.0450   -0.3480 c3        1 MOL      0.070561
    157 C52       -12.8550   -0.3520    1.0640 c3        1 MOL     -0.274507
    158 C53       -14.3780   -0.4710    1.0030 c         1 MOL      0.766023
    159 O21       -14.9600    0.6350    1.0240 o         1 MOL     -0.682019
    160 O22       -14.9190   -1.5450    0.9540 o         1 MOL     -0.682019
    161 H72       -11.0910    1.0160   -2.2850 hn        1 MOL      0.268583
    162 H73       -10.3700   -0.9040   -0.1460 h1        1 MOL      0.119128
    163 H74       -12.7640   -0.6060   -1.1090 hc        1 MOL      0.016275
    164 H75       -12.6870    1.0490   -0.5590 hc        1 MOL      0.016275
    165 H76       -12.5090    0.2930    1.8650 hc        1 MOL      0.057468
    166 H77       -12.4850   -1.3430    1.3360 hc        1 MOL      0.057468
    167 N15       -10.2070    2.3790   -0.0800 n         1 MOL     -0.214235
    168 C54        -9.5980    3.4340    0.5950 c3        1 MOL     -0.229439
    169 H78        -8.9100    3.9470   -0.0770 h1        1 MOL      0.096905
    170 H79       -10.3600    4.1330    0.9390 h1        1 MOL      0.096905
    171 H80        -9.0470    3.0470    1.4520 h1        1 MOL      0.096905
    172 H81       -10.6460    2.4690   -0.9840 hn        1 MOL      0.254064
    173 Ca1         3.0910    0.4940   -1.1110 Ca        1 MOL      1.687655
    174 O23         3.3970    2.3100   -3.0540 oh        1 MOL     -0.836219
    175 H82         3.6420    3.2310   -3.0660 ho        1 MOL      0.421285
    176 H83         3.9710    1.9060   -3.7160 ho        1 MOL      0.421285
    177 O24         0.7970    1.2110   -2.1990 oh        1 MOL     -0.836219
    178 H84        -0.0110    0.6830   -2.1560 ho        1 MOL      0.421285
    179 H85         0.7310    1.6850   -3.0290 ho        1 MOL      0.421285
@<TRIPOS>BOND
     1    1    2 1   
     2    1    4 1   
     3    1    5 1   
     4    1    6 1   
     5    2    3 2   
     6    2    7 1   
     7    7    8 1   
     8    7   15 1   
     9    8    9 1   
    10    8   11 1   
    11    8   16 1   
    12    9   10 2   
    13    9   19 1   
    14   11   12 1   
    15   11   17 1   
    16   11   18 1   
    17   12   13 1   
    18   12   14 1   
    19   19   20 1   
    20   19   28 1   
    21   20   21 1   
    22   20   23 1   
    23   20   29 1   
    24   21   22 2   
    25   21   41 1   
    26   23   24 1   
    27   23   30 1   
    28   23   31 1   
    29   24   25 1   
    30   24   32 1   
    31   24   33 1   
    32   25   26 1   
    33   25   34 1   
    34   25   35 1   
    35   26   27 1   
    36   26   36 1   
    37   26   37 1   
    38   27   38 1   
    39   27   39 1   
    40   27   40 1   
    41   41   42 1   
    42   41   49 1   
    43   42   43 1   
    44   42   45 1   
    45   42   50 1   
    46   43   44 2   
    47   43   53 1   
    48   45   46 1   
    49   45   51 1   
    50   45   52 1   
    51   46   47 1   
    52   46   48 1   
    53   53   54 1   
    54   53   57 1   
    55   54   55 1   
    56   54   58 1   
    57   54   59 1   
    58   55   56 2   
    59   55   60 1   
    60   60   61 1   
    61   60   68 1   
    62   61   62 1   
    63   61   64 1   
    64   61   69 1   
    65   62   63 2   
    66   62   74 1   
    67   64   65 1   
    68   64   70 1   
    69   64   71 1   
    70   65   66 1   
    71   65   67 2   
    72   66   72 1   
    73   66   73 1   
    74   74   75 1   
    75   74   78 1   
    76   75   76 1   
    77   75   79 1   
    78   75   80 1   
    79   76   77 2   
    80   76   81 1   
    81   81   82 1   
    82   81   93 1   
    83   82   83 1   
    84   82   85 1   
    85   82   94 1   
    86   83   84 2   
    87   83  102 1   
    88   85   86 1   
    89   85   95 1   
    90   85   96 1   
    91   86   87 ar  
    92   86   88 ar  
    93   87   89 ar  
    94   87   97 1   
    95   88   90 ar  
    96   88   98 1   
    97   89   91 ar  
    98   89   99 1   
    99   90   91 ar  
   100   90  100 1   
   101   91   92 1   
   102   92  101 1   
   103  102  103 1   
   104  102  110 1   
   105  103  104 1   
   106  103  106 1   
   107  103  111 1   
   108  104  105 2   
   109  104  121 1   
   110  106  107 1   
   111  106  108 1   
   112  106  112 1   
   113  107  109 1   
   114  107  113 1   
   115  107  114 1   
   116  108  115 1   
   117  108  116 1   
   118  108  117 1   
   119  109  118 1   
   120  109  119 1   
   121  109  120 1   
   122  121  122 1   
   123  121  127 1   
   124  122  123 1   
   125  122  125 1   
   126  122  128 1   
   127  123  124 2   
   128  123  132 1   
   129  125  126 1   
   130  125  129 1   
   131  125  130 1   
   132  126  131 1   
   133  132  133 1   
   134  132  137 1   
   135  133  134 1   
   136  133  136 1   
   137  133  138 1   
   138  134  135 2   
   139  134  142 1   
   140  136  139 1   
   141  136  140 1   
   142  136  141 1   
   143  142  143 1   
   144  142  147 1   
   145  143  144 1   
   146  143  146 1   
   147  143  148 1   
   148  144  145 2   
   149  144  152 1   
   150  146  149 1   
   151  146  150 1   
   152  146  151 1   
   153  152  153 1   
   154  152  161 1   
   155  153  154 1   
   156  153  156 1   
   157  153  162 1   
   158  154  155 2   
   159  154  167 1   
   160  156  157 1   
   161  156  163 1   
   162  156  164 1   
   163  157  158 1   
   164  157  165 1   
   165  157  166 1   
   166  158  159 1   
   167  158  160 1   
   168  167  168 1   
   169  167  172 1   
   170  168  169 1   
   171  168  170 1   
   172  168  171 1   
   173  174  175 1   
   174  174  176 1   
   175  177  178 1   
   176  177  179 1   
@<TRIPOS>SUBSTRUCTURE
     1 MOL         1 TEMP              0 ****  ****    0 ROOT
