@<TRIPOS>MOLECULE
MOL
  181   177     1     0     0
SMALL
resp


@<TRIPOS>ATOM
      1 C1          4.7640   -1.7940    3.1590 c3        1 MOL     -0.420964
      2 C2          5.9680   -1.0820    2.6320 c         1 MOL      0.682272
      3 O1          5.7480   -0.1610    1.8820 o         1 MOL     -0.606134
      4 H1          5.0000   -2.8480    3.3030 hc        1 MOL      0.114735
      5 H2          4.4690   -1.3540    4.1110 hc        1 MOL      0.114735
      6 H3          3.9450   -1.7010    2.4460 hc        1 MOL      0.114735
      7 N1          7.1890   -1.4750    2.9780 n         1 MOL     -0.381490
      8 C3          8.3630   -0.7130    2.5220 c3        1 MOL      0.007886
      9 C4          8.6540   -1.0130    1.0490 c         1 MOL      0.557823
     10 O2          8.6270   -2.1730    0.5130 o         1 MOL     -0.467040
     11 C5          9.5900   -1.1220    3.3550 c3        1 MOL     -0.182296
     12 C6          9.9660   -2.6070    3.3340 c         1 MOL      0.646080
     13 O3         10.9390   -2.9570    2.6640 o         1 MOL     -0.681457
     14 O4          9.2100   -3.4360    3.9410 o         1 MOL     -0.681457
     15 H4          7.3330   -2.2960    3.5490 hn        1 MOL      0.218292
     16 H5          8.1420    0.3340    2.7530 h1        1 MOL      0.039101
     17 H6          9.4020   -0.8600    4.4020 hc        1 MOL      0.016603
     18 H7         10.4480   -0.5940    2.9560 hc        1 MOL      0.016603
     19 N2          8.8720    0.0500    0.2710 n         1 MOL     -0.432810
     20 C7          9.0130    0.0370   -1.1930 c3        1 MOL      0.147319
     21 C8          7.6510   -0.2380   -1.9730 c         1 MOL      0.577728
     22 O5          7.5980   -0.3700   -3.2280 o         1 MOL     -0.588871
     23 C9          9.6130    1.4200   -1.6110 c3        1 MOL     -0.294947
     24 H8          9.0460    0.9730    0.6500 hn        1 MOL      0.264521
     25 H9          9.6150   -0.7950   -1.5620 h1        1 MOL      0.058091
     26 H10        10.4710    1.5580   -0.9560 hc        1 MOL      0.077789
     27 H11         9.9450    1.4560   -2.6420 hc        1 MOL      0.077789
     28 H12         9.0290    2.2850   -1.2780 hc        1 MOL      0.077789
     29 N3          6.5460   -0.0540   -1.2280 n         1 MOL     -0.636405
     30 C10         5.1470   -0.5500   -1.3920 c3        1 MOL      0.343951
     31 C11         4.5380   -0.2910   -2.7890 c         1 MOL      0.510648
     32 O6          3.5890   -0.9810   -3.1990 o         1 MOL     -0.550518
     33 C12         4.9910   -2.0040   -0.9730 c3        1 MOL     -0.123311
     34 C13         3.5520   -2.4940   -0.7290 c         1 MOL      0.806229
     35 O7          3.1940   -3.6090   -1.0930 o         1 MOL     -0.802659
     36 O8          2.6400   -1.6450   -0.4370 o         1 MOL     -0.802659
     37 H13         6.7350    0.2690   -0.2930 hn        1 MOL      0.240839
     38 H14         4.5280    0.0760   -0.7480 h1        1 MOL      0.056392
     39 H15         5.4420   -2.2000    0.0050 hc        1 MOL      0.006562
     40 H16         5.4360   -2.6890   -1.6870 hc        1 MOL      0.006562
     41 N4          4.8740    0.7840   -3.4780 n         1 MOL     -0.174162
     42 C14         4.4970    1.1470   -4.8360 c3        1 MOL     -0.219922
     43 C15         3.1450    1.8860   -4.8510 c         1 MOL      0.577269
     44 O9          2.5900    2.1990   -5.8990 o         1 MOL     -0.565301
     45 H17         5.6550    1.2920   -3.0900 hn        1 MOL      0.198862
     46 H18         4.4170    0.2500   -5.4520 h1        1 MOL      0.118603
     47 H19         5.2040    1.8390   -5.3110 h1        1 MOL      0.118603
     48 N5          2.6290    2.2270   -3.6480 n         1 MOL     -0.445828
     49 C16         1.2810    2.8330   -3.5520 c3        1 MOL      0.041103
     50 C17         1.2650    3.9630   -2.4880 c         1 MOL      0.476896
     51 O10         1.5250    3.7760   -1.3440 o         1 MOL     -0.479262
     52 C18         0.3040    1.7360   -3.1000 c3        1 MOL     -0.138398
     53 C19        -1.2110    2.0820   -3.1090 c         1 MOL      0.478639
     54 N6         -1.7690    2.5370   -2.0470 n         1 MOL     -0.541996
     55 O11        -1.8300    2.0280   -4.1270 o         1 MOL     -0.553765
     56 H20         3.1660    1.9580   -2.8370 hn        1 MOL      0.189069
     57 H21         0.9360    3.2250   -4.4980 h1        1 MOL      0.084801
     58 H22         0.6580    1.2730   -2.1700 hc        1 MOL      0.128174
     59 H23         0.4190    0.9730   -3.8690 hc        1 MOL      0.128174
     60 H24        -1.2980    2.6240   -1.1580 hn        1 MOL      0.284011
     61 H25        -2.6870    2.9600   -2.1370 hn        1 MOL      0.284011
     62 N7          0.6860    5.1100   -2.8610 n         1 MOL     -0.419146
     63 C20         0.6600    6.3120   -2.0630 c3        1 MOL      0.051657
     64 C21        -0.6170    6.5910   -1.2970 c         1 MOL      0.484299
     65 O12        -1.7010    6.3610   -1.8530 o         1 MOL     -0.491626
     66 H26         0.3250    5.1660   -3.8080 hn        1 MOL      0.280252
     67 H27         1.0210    7.1390   -2.6810 h1        1 MOL      0.048520
     68 H28         1.5400    6.2390   -1.4210 h1        1 MOL      0.048520
     69 N8         -0.4860    6.9730   -0.0080 n         1 MOL     -0.464010
     70 C22        -1.5410    7.0130    1.0500 c3        1 MOL     -0.034958
     71 C23        -1.7200    5.7820    1.9610 c         1 MOL      0.473779
     72 O13        -2.5590    5.7870    2.8780 o         1 MOL     -0.579864
     73 C24        -1.4080    8.2270    1.9810 c3        1 MOL      0.536184
     74 C25        -0.3740    8.1640    3.0970 c3        1 MOL     -0.419649
     75 O14        -1.1430    9.3870    1.1990 oh        1 MOL     -0.663537
     76 H29         0.4600    7.2640    0.1900 hn        1 MOL      0.239454
     77 H30        -2.4940    7.0810    0.5310 h1        1 MOL      0.095570
     78 H31        -2.3880    8.3220    2.4510 h1        1 MOL      0.005280
     79 H32        -0.2120    9.3450    0.9740 ho        1 MOL      0.373032
     80 H33         0.5980    7.7990    2.7720 hc        1 MOL      0.097106
     81 H34        -0.3140    9.1490    3.5600 hc        1 MOL      0.097106
     82 H35        -0.7750    7.5300    3.8780 hc        1 MOL      0.097106
     83 N9         -0.9020    4.7730    1.7570 n         1 MOL     -0.228414
     84 C26        -0.9460    3.5460    2.5330 c3        1 MOL     -0.292463
     85 C27        -1.0150    2.3360    1.6410 c         1 MOL      0.888276
     86 O15        -0.4020    2.4290    0.5940 o         1 MOL     -0.557542
     87 C28         0.3350    3.4830    3.3920 c3        1 MOL      0.061656
     88 C29         0.6000    4.7000    4.2690 c3        1 MOL      0.185150
     89 C30         0.3050    2.2890    4.2720 c3        1 MOL      0.087576
     90 C31         1.9410    4.6080    5.0640 c3        1 MOL     -0.353139
     91 H36        -0.1960    4.8310    1.0380 hn        1 MOL      0.207531
     92 H37        -1.8560    3.4380    3.1210 h1        1 MOL      0.135945
     93 H38         1.2140    3.3900    2.7490 hc        1 MOL      0.034402
     94 H39        -0.1970    4.8790    4.9900 hc        1 MOL     -0.029021
     95 H40         0.6480    5.5970    3.6640 hc        1 MOL     -0.029021
     96 H41         1.0470    2.1390    5.0530 hc        1 MOL     -0.025766
     97 H42        -0.6400    2.3330    4.8140 hc        1 MOL     -0.025766
     98 H43         0.2360    1.3970    3.6500 hc        1 MOL     -0.025766
     99 H44         1.6580    4.0640    5.9580 hc        1 MOL      0.084207
    100 H45         2.7590    4.1660    4.4980 hc        1 MOL      0.084207
    101 H46         2.2790    5.6290    5.2270 hc        1 MOL      0.084207
    102 N10        -1.8720    1.3240    1.8360 n         1 MOL     -0.861726
    103 C32        -1.8930    0.1460    1.0320 c3        1 MOL      0.578809
    104 C33        -3.2400   -0.2880    0.5260 c         1 MOL      0.373451
    105 O16        -3.4220   -1.4730    0.1800 o         1 MOL     -0.485677
    106 C34        -1.1360   -1.0030    1.6630 c3        1 MOL     -0.413888
    107 C35        -0.6160   -1.9560    0.5580 c         1 MOL      0.976847
    108 O17        -0.5360   -1.7010   -0.6540 o         1 MOL     -0.817678
    109 O18        -0.1990   -3.0970    0.9250 o         1 MOL     -0.817678
    110 H47        -2.5820    1.3910    2.5570 hn        1 MOL      0.342610
    111 H48        -1.3110    0.4090    0.1500 h1        1 MOL     -0.059271
    112 H49        -1.8040   -1.4800    2.3890 hc        1 MOL      0.098124
    113 H50        -0.3000   -0.5120    2.1450 hc        1 MOL      0.098124
    114 N11        -4.2490    0.6170    0.4550 n         1 MOL     -0.552416
    115 C36        -5.5470    0.2760   -0.1270 c3        1 MOL      0.429934
    116 C37        -6.2580   -0.8890    0.6440 c         1 MOL      0.236425
    117 O19        -6.1950   -0.9780    1.8420 o         1 MOL     -0.468759
    118 C38        -6.3850    1.5610   -0.2000 c3        1 MOL     -0.283862
    119 C39        -7.7490    1.4880   -0.7910 ca        1 MOL      0.128052
    120 C40        -7.8910    1.5880   -2.1740 ca        1 MOL     -0.116531
    121 C41        -8.8700    1.2710   -0.0140 ca        1 MOL     -0.116531
    122 C42        -9.1620    1.6920   -2.7240 ca        1 MOL     -0.141577
    123 C43       -10.1160    1.2930   -0.6190 ca        1 MOL     -0.141577
    124 C44       -10.3190    1.4170   -1.9900 ca        1 MOL     -0.105589
    125 H51        -4.1140    1.5810    0.7200 hn        1 MOL      0.274054
    126 H52        -5.3720   -0.0050   -1.1650 h1        1 MOL      0.006806
    127 H53        -5.8610    2.3730   -0.6990 hc        1 MOL      0.081603
    128 H54        -6.5480    1.8680    0.8320 hc        1 MOL      0.081603
    129 H55        -7.0950    1.5760   -2.9040 ha        1 MOL      0.115002
    130 H56        -8.7230    1.1830    1.0480 ha        1 MOL      0.115002
    131 H57        -9.1930    1.6110   -3.8040 ha        1 MOL      0.101487
    132 H58       -10.9740    0.9810   -0.0350 ha        1 MOL      0.101487
    133 H59       -11.2790    1.1410   -2.3940 ha        1 MOL      0.114643
    134 N12        -6.8540   -1.8710   -0.0670 n         1 MOL     -0.089359
    135 C45        -7.4830   -3.0230    0.5880 c3        1 MOL      0.124452
    136 C46        -6.5610   -3.8410    1.5410 c         1 MOL      0.267406
    137 O20        -7.0340   -4.5860    2.4670 o         1 MOL     -0.556880
    138 C47        -8.1750   -3.9050   -0.4850 c3        1 MOL     -0.059617
    139 C48        -8.3180   -2.9080   -1.6590 c3        1 MOL     -0.004914
    140 C49        -7.1240   -1.9710   -1.5360 c3        1 MOL     -0.170801
    141 H60        -8.2750   -2.6320    1.2230 h1        1 MOL      0.022745
    142 H61        -7.3520   -4.5830   -0.7410 hc        1 MOL      0.034377
    143 H62        -9.0210   -4.4770   -0.1100 hc        1 MOL      0.034377
    144 H63        -8.3810   -3.4880   -2.5790 hc        1 MOL      0.035794
    145 H64        -9.2360   -2.3260   -1.5840 hc        1 MOL      0.035794
    146 H65        -6.2010   -2.3960   -1.9410 h1        1 MOL      0.071602
    147 H66        -7.4460   -1.0040   -1.9150 h1        1 MOL      0.071602
    148 N13        -5.2750   -3.6820    1.3770 n         1 MOL      0.025476
    149 C50        -4.2320   -4.4890    2.1030 c3        1 MOL     -0.238056
    150 C51        -3.6880   -3.8350    3.4350 c         1 MOL      0.431916
    151 O21        -2.9790   -4.4930    4.1930 o         1 MOL     -0.524427
    152 C52        -3.1120   -4.9370    1.1350 c3        1 MOL      0.028795
    153 C53        -3.4580   -5.9420    0.0840 c3        1 MOL     -0.407525
    154 C54        -2.5390   -5.7160   -1.1640 c         1 MOL      0.680753
    155 O22        -1.2920   -5.7670   -0.9890 o         1 MOL     -0.682919
    156 O23        -2.9640   -5.7210   -2.2910 o         1 MOL     -0.682919
    157 H67        -4.9310   -3.0070    0.7020 hn        1 MOL      0.195343
    158 H68        -4.7540   -5.4080    2.3860 h1        1 MOL      0.132922
    159 H69        -2.2510   -5.3480    1.6800 hc        1 MOL      0.073184
    160 H70        -2.7470   -4.0420    0.6400 hc        1 MOL      0.073184
    161 H71        -4.5290   -5.8740   -0.1050 hc        1 MOL      0.107430
    162 H72        -3.2730   -6.9320    0.4920 hc        1 MOL      0.107430
    163 N14        -4.0910   -2.6130    3.7680 n         1 MOL     -0.116648
    164 C55        -3.7970   -1.9470    5.1390 c3        1 MOL     -0.240111
    165 H73        -4.4330   -1.0700    5.2600 h1        1 MOL      0.096682
    166 H74        -4.0020   -2.6570    5.9400 h1        1 MOL      0.096682
    167 H75        -2.7500   -1.6440    5.1800 h1        1 MOL      0.096682
    168 H76        -4.6990   -2.1070    3.1410 hn        1 MOL      0.148163
    169 Ca1         0.6760   -3.9580   -1.3850 Ca        1 MOL      1.739180
    170 O24        -1.2760   -3.8470   -3.2240 oh        1 MOL     -0.820359
    171 H77        -1.6070   -2.9600   -3.3450 ho        1 MOL      0.399171
    172 H78        -2.0270   -4.3470   -2.9050 ho        1 MOL      0.399171
    173 O25         1.5880   -6.2500   -2.6220 oh        1 MOL     -0.820359
    174 H79         1.9620   -6.6670   -1.8500 ho        1 MOL      0.399171
    175 H80         2.1050   -6.5740   -3.3560 ho        1 MOL      0.399171
    176 O26         1.2590   -2.4550   -3.4920 oh        1 MOL     -0.820359
    177 H81         1.9160   -1.7810   -3.2790 ho        1 MOL      0.399171
    178 H82         1.4960   -2.7580   -4.3650 ho        1 MOL      0.399171
    179 O27         1.6170   -5.6500    0.3770 oh        1 MOL     -0.820359
    180 H83         2.3530   -5.0990    0.6280 ho        1 MOL      0.399171
    181 H84         1.8540   -6.5150    0.6930 ho        1 MOL      0.399171
@<TRIPOS>BOND
     1    1    2 1   
     2    1    4 1   
     3    1    5 1   
     4    1    6 1   
     5    2    3 2   
     6    2    7 1   
     7    7    8 1   
     8    7   15 1   
     9    8    9 1   
    10    8   11 1   
    11    8   16 1   
    12    9   10 2   
    13    9   19 1   
    14   11   12 1   
    15   11   17 1   
    16   11   18 1   
    17   12   13 1   
    18   12   14 1   
    19   19   20 1   
    20   19   24 1   
    21   20   21 1   
    22   20   23 1   
    23   20   25 1   
    24   21   22 2   
    25   21   29 1   
    26   23   26 1   
    27   23   27 1   
    28   23   28 1   
    29   29   30 1   
    30   29   37 1   
    31   30   31 1   
    32   30   33 1   
    33   30   38 1   
    34   31   32 2   
    35   31   41 1   
    36   33   34 1   
    37   33   39 1   
    38   33   40 1   
    39   34   35 1   
    40   34   36 1   
    41   41   42 1   
    42   41   45 1   
    43   42   43 1   
    44   42   46 1   
    45   42   47 1   
    46   43   44 2   
    47   43   48 1   
    48   48   49 1   
    49   48   56 1   
    50   49   50 1   
    51   49   52 1   
    52   49   57 1   
    53   50   51 2   
    54   50   62 1   
    55   52   53 1   
    56   52   58 1   
    57   52   59 1   
    58   53   54 1   
    59   53   55 2   
    60   54   60 1   
    61   54   61 1   
    62   62   63 1   
    63   62   66 1   
    64   63   64 1   
    65   63   67 1   
    66   63   68 1   
    67   64   65 2   
    68   64   69 1   
    69   69   70 1   
    70   69   76 1   
    71   70   71 1   
    72   70   73 1   
    73   70   77 1   
    74   71   72 2   
    75   71   83 1   
    76   73   74 1   
    77   73   75 1   
    78   73   78 1   
    79   74   80 1   
    80   74   81 1   
    81   74   82 1   
    82   75   79 1   
    83   83   84 1   
    84   83   91 1   
    85   84   85 1   
    86   84   87 1   
    87   84   92 1   
    88   85   86 2   
    89   85  102 1   
    90   87   88 1   
    91   87   89 1   
    92   87   93 1   
    93   88   90 1   
    94   88   94 1   
    95   88   95 1   
    96   89   96 1   
    97   89   97 1   
    98   89   98 1   
    99   90   99 1   
   100   90  100 1   
   101   90  101 1   
   102  102  103 1   
   103  102  110 1   
   104  103  104 1   
   105  103  106 1   
   106  103  111 1   
   107  104  105 2   
   108  104  114 1   
   109  106  107 1   
   110  106  112 1   
   111  106  113 1   
   112  107  108 1   
   113  107  109 1   
   114  114  115 1   
   115  114  125 1   
   116  115  116 1   
   117  115  118 1   
   118  115  126 1   
   119  116  117 2   
   120  116  134 1   
   121  118  119 1   
   122  118  127 1   
   123  118  128 1   
   124  119  120 ar  
   125  119  121 ar  
   126  120  122 ar  
   127  120  129 1   
   128  121  123 ar  
   129  121  130 1   
   130  122  124 ar  
   131  122  131 1   
   132  123  124 ar  
   133  123  132 1   
   134  124  133 1   
   135  134  135 1   
   136  134  140 1   
   137  135  136 1   
   138  135  138 1   
   139  135  141 1   
   140  136  137 2   
   141  136  148 1   
   142  138  139 1   
   143  138  142 1   
   144  138  143 1   
   145  139  140 1   
   146  139  144 1   
   147  139  145 1   
   148  140  146 1   
   149  140  147 1   
   150  148  149 1   
   151  148  157 1   
   152  149  150 1   
   153  149  152 1   
   154  149  158 1   
   155  150  151 2   
   156  150  163 1   
   157  152  153 1   
   158  152  159 1   
   159  152  160 1   
   160  153  154 1   
   161  153  161 1   
   162  153  162 1   
   163  154  155 1   
   164  154  156 1   
   165  163  164 1   
   166  163  168 1   
   167  164  165 1   
   168  164  166 1   
   169  164  167 1   
   170  170  171 1   
   171  170  172 1   
   172  173  174 1   
   173  173  175 1   
   174  176  177 1   
   175  176  178 1   
   176  179  180 1   
   177  179  181 1   
@<TRIPOS>SUBSTRUCTURE
     1 MOL         1 TEMP              0 ****  ****    0 ROOT
