@<TRIPOS>MOLECULE
MOL
  198   191     1     0     0
SMALL
resp


@<TRIPOS>ATOM
      1 C1         -4.0570    6.6290    4.6670 c3        1 MOL     -0.333434
      2 C2         -3.0980    5.9690    3.5820 c         1 MOL      0.632429
      3 O1         -3.1060    4.7690    3.3750 o         1 MOL     -0.515187
      4 H1         -4.7540    7.3040    4.1730 hc        1 MOL      0.079107
      5 H2         -4.6130    5.8470    5.1840 hc        1 MOL      0.079107
      6 H3         -3.4600    7.1880    5.3880 hc        1 MOL      0.079107
      7 N1         -2.2650    6.8410    3.0220 n         1 MOL     -0.405829
      8 C3         -1.5000    6.5750    1.8530 c3        1 MOL      0.085807
      9 C4         -2.1250    5.8610    0.7140 c         1 MOL      0.749746
     10 O2         -1.7460    4.7180    0.4570 o         1 MOL     -0.578940
     11 C5         -0.0580    6.0300    2.2230 c3        1 MOL     -0.247942
     12 C6          0.6350    6.7880    3.3050 c         1 MOL      0.684655
     13 O3          1.1910    6.1990    4.3120 o         1 MOL     -0.645071
     14 O4          0.6790    8.0240    3.1530 o         1 MOL     -0.645071
     15 H4         -2.4060    7.7880    3.3260 hn        1 MOL      0.257070
     16 H5         -1.3210    7.5020    1.2990 h1        1 MOL     -0.003613
     17 H6          0.4370    6.1090    1.2500 hc        1 MOL      0.070922
     18 H7         -0.1080    4.9800    2.5210 hc        1 MOL      0.070922
     19 N2         -3.2650    6.4720    0.3130 n         1 MOL     -0.701211
     20 C7         -4.1980    6.1380   -0.7560 c3        1 MOL      0.272607
     21 C8         -4.8880    4.7810   -0.6740 c         1 MOL      0.406642
     22 O5         -6.0710    4.6920   -1.0890 o         1 MOL     -0.565772
     23 C9         -3.6300    6.5440   -2.1180 c3        1 MOL     -0.246808
     24 C10        -3.3700    8.0430   -2.2170 c3        1 MOL     -0.027788
     25 C11        -3.1030    8.6500   -3.6050 c3        1 MOL      0.161370
     26 C12        -2.9020   10.1470   -3.4300 c3        1 MOL      0.045037
     27 N3         -2.4400   10.7410   -4.7370 n4        1 MOL     -0.216178
     28 H8         -3.5630    7.2490    0.8730 hn        1 MOL      0.280569
     29 H9         -5.0530    6.8060   -0.7530 h1        1 MOL      0.046921
     30 H10        -4.3960    6.2670   -2.8320 hc        1 MOL      0.087737
     31 H11        -2.7340    5.9770   -2.3980 hc        1 MOL      0.087737
     32 H12        -2.4810    8.2060   -1.6080 hc        1 MOL      0.031996
     33 H13        -4.2450    8.5580   -1.8290 hc        1 MOL      0.031996
     34 H14        -4.0200    8.5160   -4.1760 hc        1 MOL     -0.020484
     35 H15        -2.3000    8.1460   -4.1350 hc        1 MOL     -0.020484
     36 H16        -2.2040   10.2820   -2.6050 hx        1 MOL      0.053350
     37 H17        -3.8570   10.5660   -3.1090 hx        1 MOL      0.053350
     38 H18        -1.6250   10.3200   -5.1480 hn        1 MOL      0.230850
     39 H19        -3.1850   10.8230   -5.4100 hn        1 MOL      0.230850
     40 H20        -2.2070   11.7130   -4.5400 hn        1 MOL      0.230850
     41 N4         -4.2090    3.7730   -0.1450 n         1 MOL     -0.509728
     42 C13        -4.6300    2.4450   -0.3720 c3        1 MOL      0.409172
     43 C14        -4.0790    1.4660    0.7300 c         1 MOL      0.257346
     44 O6         -2.8820    1.5700    1.0720 o         1 MOL     -0.447239
     45 C15        -4.0820    2.0310   -1.7610 c3        1 MOL     -0.438153
     46 C16        -4.5680    0.7340   -2.3050 c         1 MOL      0.948923
     47 O7         -5.5870    0.0830   -1.8760 o         1 MOL     -0.847310
     48 O8         -3.9750    0.2290   -3.2990 o         1 MOL     -0.847310
     49 H21        -3.2780    3.9930    0.1720 hn        1 MOL      0.378755
     50 H22        -5.7190    2.4330   -0.5150 h1        1 MOL      0.059598
     51 H23        -3.0100    1.9920   -1.6410 hc        1 MOL      0.102772
     52 H24        -4.2840    2.8060   -2.5040 hc        1 MOL      0.102772
     53 N5         -4.8780    0.5350    1.3890 n         1 MOL     -0.283231
     54 C17        -6.3290    0.2950    1.2290 c3        1 MOL     -0.096808
     55 C18        -6.7490   -1.2330    1.3120 c         1 MOL      0.607397
     56 O9         -6.5020   -1.9070    2.3130 o         1 MOL     -0.566508
     57 H25        -4.3640   -0.1640    1.9170 hn        1 MOL      0.233790
     58 H26        -6.5990    0.6230    0.2260 h1        1 MOL      0.068961
     59 H27        -6.9510    0.9130    1.8840 h1        1 MOL      0.068961
     60 N6         -7.5380   -1.6490    0.3350 n         1 MOL     -0.562235
     61 C19        -8.0050   -3.0520    0.1990 c3        1 MOL      0.158565
     62 C20        -6.7090   -3.8890   -0.1570 c         1 MOL      0.707584
     63 O10        -5.7860   -3.4770   -0.8050 o         1 MOL     -0.637096
     64 C21        -9.0840   -3.2850   -0.8830 c3        1 MOL     -0.196471
     65 C22        -8.6510   -2.7150   -2.2970 c         1 MOL      0.617982
     66 O11        -7.4930   -2.2830   -2.4750 o         1 MOL     -0.654378
     67 O12        -9.4030   -2.8330   -3.2660 o         1 MOL     -0.654378
     68 H28        -7.7080   -1.0610   -0.4630 hn        1 MOL      0.351056
     69 H29        -8.4370   -3.4580    1.1160 h1        1 MOL      0.017056
     70 H30       -10.0310   -2.8270   -0.5980 hc        1 MOL      0.047187
     71 H31        -9.2870   -4.3570   -0.8740 hc        1 MOL      0.047187
     72 N7         -6.6430   -5.0710    0.4510 n         1 MOL     -0.434112
     73 C23        -5.5250   -6.0660    0.4110 c3        1 MOL     -0.131592
     74 C24        -4.2370   -5.6530    1.1130 c         1 MOL      0.499228
     75 O13        -3.2250   -6.4050    1.0000 o         1 MOL     -0.579781
     76 H32        -7.4440   -5.3090    1.0240 hn        1 MOL      0.262770
     77 H33        -5.2670   -6.3590   -0.6100 h1        1 MOL      0.113309
     78 H34        -5.8620   -6.9620    0.9210 h1        1 MOL      0.113309
     79 N8         -4.1690   -4.5060    1.7920 n         1 MOL     -0.116753
     80 C25        -3.0370   -4.1620    2.7270 c3        1 MOL     -0.047200
     81 C26        -2.3680   -2.8800    2.3730 c         1 MOL      0.364922
     82 O14        -2.9930   -1.8840    2.0270 o         1 MOL     -0.367905
     83 C27        -3.4690   -4.1190    4.2280 c3        1 MOL      0.215592
     84 C28        -4.6750   -3.2240    4.6560 c3        1 MOL     -0.282801
     85 O15        -3.9550   -5.4270    4.5230 oh        1 MOL     -0.635033
     86 H35        -5.0730   -4.0780    1.9190 hn        1 MOL      0.124365
     87 H36        -2.3540   -5.0040    2.6070 h1        1 MOL      0.123396
     88 H37        -2.6410   -3.9840    4.9210 h1        1 MOL      0.050349
     89 H38        -4.1040   -5.4790    5.4700 ho        1 MOL      0.406248
     90 H39        -4.8160   -3.2460    5.7300 hc        1 MOL      0.094045
     91 H40        -4.6510   -2.2040    4.2820 hc        1 MOL      0.094045
     92 H41        -5.5950   -3.6990    4.3030 hc        1 MOL      0.094045
     93 N9         -0.9670   -2.9050    2.4790 n         1 MOL     -0.509910
     94 C29        -0.1580   -1.6910    2.2460 c3        1 MOL     -0.077841
     95 C30         1.0900   -1.8800    1.4060 c         1 MOL      0.609457
     96 O16         1.8490   -0.9620    1.1230 o         1 MOL     -0.574782
     97 C31         0.1980   -0.9860    3.5990 c3        1 MOL      0.156675
     98 C32         1.0360   -1.8600    4.5940 c3        1 MOL      0.054442
     99 C33        -1.0630   -0.3560    4.2970 c3        1 MOL     -0.409208
    100 C34         1.7600   -1.0060    5.6120 c3        1 MOL     -0.097067
    101 H42        -0.5280   -3.7770    2.7590 hn        1 MOL      0.315287
    102 H43        -0.7570   -0.9540    1.7130 h1        1 MOL      0.089216
    103 H44         0.8860   -0.1780    3.3620 hc        1 MOL      0.048021
    104 H45         1.6680   -2.4740    3.9490 hc        1 MOL     -0.029696
    105 H46         0.4420   -2.5870    5.1430 hc        1 MOL     -0.029696
    106 H47        -1.6880   -1.0470    4.8610 hc        1 MOL      0.121944
    107 H48        -0.7740    0.5780    4.7810 hc        1 MOL      0.121944
    108 H49        -1.6670    0.1150    3.5280 hc        1 MOL      0.121944
    109 H50         2.2940   -0.2600    5.0310 hc        1 MOL      0.029060
    110 H51         1.2230   -0.5110    6.4150 hc        1 MOL      0.029060
    111 H52         2.5340   -1.5990    6.1140 hc        1 MOL      0.029060
    112 N10         1.3380   -3.0540    0.8310 n         1 MOL     -0.227279
    113 C35         2.3640   -3.3900   -0.1180 c3        1 MOL     -0.189093
    114 C36         3.5420   -4.2030    0.4930 c         1 MOL      0.510881
    115 O17         3.3740   -5.0840    1.3530 o         1 MOL     -0.505887
    116 C37         1.7350   -4.3540   -1.1520 c3        1 MOL      0.549124
    117 C38         0.8150   -3.5480   -2.0760 c3        1 MOL     -0.426561
    118 O18         2.7000   -4.8080   -2.1340 oh        1 MOL     -0.745869
    119 H53         0.8580   -3.8830    1.1510 hn        1 MOL      0.164318
    120 H54         2.7330   -2.4890   -0.5890 h1        1 MOL      0.172508
    121 H55         1.2240   -5.2490   -0.7820 h1        1 MOL      0.008389
    122 H56         2.3130   -5.2110   -2.9140 ho        1 MOL      0.432103
    123 H57         0.2030   -4.3060   -2.5630 hc        1 MOL      0.076729
    124 H58         0.1520   -2.9380   -1.4700 hc        1 MOL      0.076729
    125 H59         1.4250   -3.0090   -2.8000 hc        1 MOL      0.076729
    126 N11         4.7270   -3.8150   -0.0630 n         1 MOL     -0.426415
    127 C39         5.9840   -4.4180    0.2150 c3        1 MOL     -0.013536
    128 C40         7.1060   -3.4560    0.6000 c         1 MOL      0.677283
    129 O19         7.6620   -3.5390    1.6890 o         1 MOL     -0.562161
    130 C41         6.3960   -5.3590   -0.9490 c3        1 MOL      0.293882
    131 C42         7.6610   -6.1150   -0.8010 c3        1 MOL     -0.275504
    132 O20         6.6020   -4.5820   -2.1180 oh        1 MOL     -0.644327
    133 H60         4.6990   -3.0480   -0.7140 hn        1 MOL      0.259696
    134 H61         5.7730   -5.0480    1.0810 h1        1 MOL      0.081762
    135 H62         5.5930   -6.0420   -1.2330 h1        1 MOL      0.028104
    136 H63         6.0960   -5.0580   -2.7760 ho        1 MOL      0.423366
    137 H64         7.6650   -6.8470   -0.0030 hc        1 MOL      0.068103
    138 H65         7.8430   -6.6320   -1.7500 hc        1 MOL      0.068103
    139 H66         8.4610   -5.4040   -0.6110 hc        1 MOL      0.068103
    140 N12         7.3730   -2.5320   -0.3170 n         1 MOL     -0.542094
    141 C43         8.4810   -1.5790   -0.2740 c3        1 MOL     -0.064692
    142 C44         8.1540   -0.3280   -1.1120 c         1 MOL      0.697466
    143 O21         7.8790   -0.4760   -2.3520 o         1 MOL     -0.553696
    144 C45         9.7300   -2.3110   -0.7660 c3        1 MOL     -0.058158
    145 C46        10.9980   -1.5000   -0.4210 c3        1 MOL      0.178054
    146 C47        12.1480   -2.3620   -0.9440 c3        1 MOL     -0.214957
    147 C48        13.5360   -1.6910   -0.7330 c3        1 MOL      0.063616
    148 N13        13.8900   -1.1130   -1.9860 n4        1 MOL     -0.359926
    149 H67         6.9170   -2.6150   -1.2220 hn        1 MOL      0.309524
    150 H68         8.6760   -1.3650    0.7750 h1        1 MOL      0.107385
    151 H69         9.7670   -2.4690   -1.8440 hc        1 MOL      0.053765
    152 H70         9.9220   -3.2720   -0.2800 hc        1 MOL      0.053765
    153 H71        11.0840   -1.3370    0.6560 hc        1 MOL     -0.014329
    154 H72        10.8800   -0.5930   -1.0010 hc        1 MOL     -0.014329
    155 H73        11.9260   -2.5210   -2.0010 hc        1 MOL      0.071617
    156 H74        12.1060   -3.2470   -0.3160 hc        1 MOL      0.071617
    157 H75        14.3200   -2.3410   -0.3650 hx        1 MOL      0.086314
    158 H76        13.3970   -0.8940    0.0050 hx        1 MOL      0.086314
    159 H77        14.0370   -1.8550   -2.6510 hn        1 MOL      0.286270
    160 H78        13.1380   -0.5360   -2.3450 hn        1 MOL      0.286270
    161 H79        14.7840   -0.6360   -1.9470 hn        1 MOL      0.286270
    162 N14         8.4160    0.8510   -0.5510 n         1 MOL     -0.624204
    163 C49         8.1080    2.1770   -1.1870 c3        1 MOL      0.345508
    164 C50         6.6140    2.2930   -1.3460 c         1 MOL      0.367310
    165 O22         6.1940    2.3680   -2.4850 o         1 MOL     -0.562405
    166 C51         8.6680    3.4020   -0.4120 c3        1 MOL     -0.015989
    167 C52        10.0900    3.6670   -0.6990 c3        1 MOL     -0.189568
    168 C53        10.4840    5.0290   -0.1640 c         1 MOL      0.760333
    169 O23        10.0630    5.3590    0.9440 o         1 MOL     -0.679073
    170 O24        11.3030    5.7680   -0.7350 o         1 MOL     -0.679073
    171 H80         8.8500    0.8340    0.3680 hn        1 MOL      0.267528
    172 H81         8.5780    2.1950   -2.1720 h1        1 MOL      0.020380
    173 H82         8.4970    3.4130    0.6680 hc        1 MOL      0.035877
    174 H83         8.1270    4.2450   -0.8280 hc        1 MOL      0.035877
    175 H84        10.2790    3.5980   -1.7710 hc        1 MOL     -0.007587
    176 H85        10.7550    2.9420   -0.2290 hc        1 MOL     -0.007587
    177 N15         5.7210    2.3210   -0.3960 n         1 MOL     -0.349416
    178 C54         5.8110    2.2560    1.0870 c3        1 MOL     -0.056161
    179 H86         6.3640    1.3640    1.3780 h1        1 MOL      0.068317
    180 H87         6.3270    3.1410    1.4600 h1        1 MOL      0.068317
    181 H88         4.8070    2.2160    1.5100 h1        1 MOL      0.068317
    182 H89         4.8170    2.2400   -0.8330 hn        1 MOL      0.299529
    183 Ca1        -5.0010   -2.1060   -2.9990 Ca        1 MOL      1.762108
    184 O25        -6.3700   -0.9310   -4.9310 oh        1 MOL     -0.830334
    185 H90        -7.2470   -1.1290   -5.2820 ho        1 MOL      0.411849
    186 H91        -6.0700   -0.1940   -5.4490 ho        1 MOL      0.411849
    187 O26        -4.0720   -3.1270   -5.8910 oh        1 MOL     -0.830334
    188 H92        -3.4490   -3.8490   -5.8450 ho        1 MOL      0.411849
    189 H93        -4.1700   -2.9490   -6.8340 ho        1 MOL      0.411849
    190 O27        -2.7830   -3.5460   -2.8730 oh        1 MOL     -0.830334
    191 H94        -2.2120   -3.9860   -3.5020 ho        1 MOL      0.411849
    192 H95        -2.1820   -3.0540   -2.3080 ho        1 MOL      0.411849
    193 O28        -3.1780   -1.5610   -0.7430 oh        1 MOL     -0.830334
    194 H96        -3.2730   -1.6180    0.2040 ho        1 MOL      0.411849
    195 H97        -2.5180   -0.8840   -0.8810 ho        1 MOL      0.411849
    196 O29        -5.6140   -4.6160   -3.6560 oh        1 MOL     -0.830334
    197 H98        -5.2210   -4.6370   -4.5240 ho        1 MOL      0.411849
    198 H99        -5.5430   -5.5090   -3.3310 ho        1 MOL      0.411849
@<TRIPOS>BOND
     1    1    2 1   
     2    1    4 1   
     3    1    5 1   
     4    1    6 1   
     5    2    3 2   
     6    2    7 1   
     7    7    8 1   
     8    7   15 1   
     9    8    9 1   
    10    8   11 1   
    11    8   16 1   
    12    9   10 2   
    13    9   19 1   
    14   11   12 1   
    15   11   17 1   
    16   11   18 1   
    17   12   13 1   
    18   12   14 1   
    19   19   20 1   
    20   19   28 1   
    21   20   21 1   
    22   20   23 1   
    23   20   29 1   
    24   21   22 2   
    25   21   41 1   
    26   23   24 1   
    27   23   30 1   
    28   23   31 1   
    29   24   25 1   
    30   24   32 1   
    31   24   33 1   
    32   25   26 1   
    33   25   34 1   
    34   25   35 1   
    35   26   27 1   
    36   26   36 1   
    37   26   37 1   
    38   27   38 1   
    39   27   39 1   
    40   27   40 1   
    41   41   42 1   
    42   41   49 1   
    43   42   43 1   
    44   42   45 1   
    45   42   50 1   
    46   43   44 2   
    47   43   53 1   
    48   45   46 1   
    49   45   51 1   
    50   45   52 1   
    51   46   47 1   
    52   46   48 1   
    53   53   54 1   
    54   53   57 1   
    55   54   55 1   
    56   54   58 1   
    57   54   59 1   
    58   55   56 2   
    59   55   60 1   
    60   60   61 1   
    61   60   68 1   
    62   61   62 1   
    63   61   64 1   
    64   61   69 1   
    65   62   63 2   
    66   62   72 1   
    67   64   65 1   
    68   64   70 1   
    69   64   71 1   
    70   65   66 1   
    71   65   67 1   
    72   72   73 1   
    73   72   76 1   
    74   73   74 1   
    75   73   77 1   
    76   73   78 1   
    77   74   75 2   
    78   74   79 1   
    79   79   80 1   
    80   79   86 1   
    81   80   81 1   
    82   80   83 1   
    83   80   87 1   
    84   81   82 2   
    85   81   93 1   
    86   83   84 1   
    87   83   85 1   
    88   83   88 1   
    89   84   90 1   
    90   84   91 1   
    91   84   92 1   
    92   85   89 1   
    93   93   94 1   
    94   93  101 1   
    95   94   95 1   
    96   94   97 1   
    97   94  102 1   
    98   95   96 2   
    99   95  112 1   
   100   97   98 1   
   101   97   99 1   
   102   97  103 1   
   103   98  100 1   
   104   98  104 1   
   105   98  105 1   
   106   99  106 1   
   107   99  107 1   
   108   99  108 1   
   109  100  109 1   
   110  100  110 1   
   111  100  111 1   
   112  112  113 1   
   113  112  119 1   
   114  113  114 1   
   115  113  116 1   
   116  113  120 1   
   117  114  115 2   
   118  114  126 1   
   119  116  117 1   
   120  116  118 1   
   121  116  121 1   
   122  117  123 1   
   123  117  124 1   
   124  117  125 1   
   125  118  122 1   
   126  126  127 1   
   127  126  133 1   
   128  127  128 1   
   129  127  130 1   
   130  127  134 1   
   131  128  129 2   
   132  128  140 1   
   133  130  131 1   
   134  130  132 1   
   135  130  135 1   
   136  131  137 1   
   137  131  138 1   
   138  131  139 1   
   139  132  136 1   
   140  140  141 1   
   141  140  149 1   
   142  141  142 1   
   143  141  144 1   
   144  141  150 1   
   145  142  143 2   
   146  142  162 1   
   147  144  145 1   
   148  144  151 1   
   149  144  152 1   
   150  145  146 1   
   151  145  153 1   
   152  145  154 1   
   153  146  147 1   
   154  146  155 1   
   155  146  156 1   
   156  147  148 1   
   157  147  157 1   
   158  147  158 1   
   159  148  159 1   
   160  148  160 1   
   161  148  161 1   
   162  162  163 1   
   163  162  171 1   
   164  163  164 1   
   165  163  166 1   
   166  163  172 1   
   167  164  165 2   
   168  164  177 1   
   169  166  167 1   
   170  166  173 1   
   171  166  174 1   
   172  167  168 1   
   173  167  175 1   
   174  167  176 1   
   175  168  169 1   
   176  168  170 1   
   177  177  178 1   
   178  177  182 1   
   179  178  179 1   
   180  178  180 1   
   181  178  181 1   
   182  184  185 1   
   183  184  186 1   
   184  187  188 1   
   185  187  189 1   
   186  190  191 1   
   187  190  192 1   
   188  193  194 1   
   189  193  195 1   
   190  196  197 1   
   191  196  198 1   
@<TRIPOS>SUBSTRUCTURE
     1 MOL         1 TEMP              0 ****  ****    0 ROOT
