@<TRIPOS>MOLECULE
MOL
  191   184     1     0     0
SMALL
resp


@<TRIPOS>ATOM
      1 C1          2.8600    2.1010    2.7520 c3        1 MOL     -0.450648
      2 C2          3.9550    2.2270    1.6710 c         1 MOL      0.586013
      3 O1          3.9610    1.4590    0.6890 o         1 MOL     -0.463163
      4 H1          3.2370    2.4930    3.6970 hc        1 MOL      0.124438
      5 H2          1.9820    2.6710    2.4480 hc        1 MOL      0.124438
      6 H3          2.5900    1.0530    2.8770 hc        1 MOL      0.124438
      7 N1          5.0160    3.0620    1.9390 n         1 MOL     -0.537573
      8 C3          6.2700    3.1080    1.1460 c3        1 MOL      0.077199
      9 C4          7.0160    1.7880    1.0850 c         1 MOL      0.546798
     10 O2          7.4500    1.3580    0.0140 o         1 MOL     -0.496062
     11 C5          6.0370    3.7580   -0.1940 c3        1 MOL     -0.104508
     12 C6          5.3060    5.0710   -0.2650 c         1 MOL      0.699249
     13 O3          5.1180    5.7670    0.7620 o         1 MOL     -0.701213
     14 O4          4.9450    5.4550   -1.4140 o         1 MOL     -0.701213
     15 H4          4.9240    3.7300    2.6920 hn        1 MOL      0.319541
     16 H5          6.8620    3.8990    1.6120 h1        1 MOL      0.043297
     17 H6          5.4890    2.9920   -0.7400 hc        1 MOL      0.024561
     18 H7          7.0130    3.8580   -0.6630 hc        1 MOL      0.024561
     19 N2          7.0850    1.1430    2.2380 n         1 MOL     -0.766431
     20 C7          7.6280   -0.2490    2.4240 c3        1 MOL      0.429981
     21 C8          6.6490   -1.3910    2.2090 c         1 MOL      0.270921
     22 O5          6.9240   -2.5180    2.5570 o         1 MOL     -0.531893
     23 C9          8.3620   -0.3590    3.7510 c3        1 MOL     -0.013162
     24 C10         9.5080    0.6510    3.9290 c3        1 MOL      0.084436
     25 C11        10.2800    0.3540    5.2040 c3        1 MOL     -0.063484
     26 C12        11.6060    1.0590    5.0620 c3        1 MOL      0.079923
     27 N3         12.3760    0.9880    6.3610 n4        1 MOL     -0.252800
     28 H8          6.5020    1.5750    2.9400 hn        1 MOL      0.341348
     29 H9          8.3630   -0.4110    1.6400 h1        1 MOL      0.060813
     30 H10         8.8790   -1.3230    3.7290 hc        1 MOL     -0.004298
     31 H11         7.6780   -0.2770    4.5960 hc        1 MOL     -0.004298
     32 H12         9.0250    1.6230    4.0620 hc        1 MOL     -0.008799
     33 H13        10.1300    0.5890    3.0340 hc        1 MOL     -0.008799
     34 H14        10.4550   -0.7190    5.2100 hc        1 MOL      0.037569
     35 H15         9.7250    0.6540    6.0970 hc        1 MOL      0.037569
     36 H16        11.3960    2.1260    4.9030 hx        1 MOL      0.065157
     37 H17        12.2120    0.6320    4.2630 hx        1 MOL      0.065157
     38 H18        11.7780    1.2890    7.1220 hn        1 MOL      0.242965
     39 H19        12.7180    0.0740    6.5790 hn        1 MOL      0.242965
     40 H20        13.1170    1.6630    6.2410 hn        1 MOL      0.242965
     41 N4          5.4340   -1.1010    1.7720 n         1 MOL     -0.151361
     42 C13         4.4930   -2.1450    1.3000 c3        1 MOL     -0.006219
     43 C14         5.0980   -2.9390    0.0840 c         1 MOL      0.606587
     44 O6          5.9630   -2.3500   -0.5810 o         1 MOL     -0.452560
     45 C15         3.1420   -1.4510    0.9800 c3        1 MOL     -0.257753
     46 C16         2.1040   -2.4170    0.3250 c         1 MOL      0.495982
     47 O7          2.2220   -2.6680   -0.9370 o         1 MOL     -0.596378
     48 O8          1.0930   -2.8030    0.9190 o         1 MOL     -0.596378
     49 H21         5.2990   -0.1020    1.6490 hn        1 MOL      0.122261
     50 H22         4.3060   -2.9010    2.0760 h1        1 MOL      0.045176
     51 H23         3.2530   -0.6860    0.2210 hc        1 MOL      0.135659
     52 H24         2.6600   -1.0640    1.8800 hc        1 MOL      0.135659
     53 N5          4.6850   -4.2160   -0.1100 n         1 MOL     -0.485291
     54 C17         5.3650   -5.0990   -1.1290 c3        1 MOL     -0.133251
     55 C18         5.1860   -4.6590   -2.5930 c         1 MOL      0.435879
     56 O9          6.0120   -4.9590   -3.4940 o         1 MOL     -0.555691
     57 H25         3.9830   -4.5880    0.5170 hn        1 MOL      0.347858
     58 H26         5.1330   -6.1540   -0.9650 h1        1 MOL      0.112882
     59 H27         6.4470   -4.9850   -1.0900 h1        1 MOL      0.112882
     60 N6          4.1030   -3.9980   -2.7720 n         1 MOL      0.008175
     61 C19         3.8050   -3.4320   -4.1180 c3        1 MOL     -0.066424
     62 C20         3.8300   -1.9120   -4.0770 c         1 MOL      0.505545
     63 O10         4.0240   -1.3010   -5.1110 o         1 MOL     -0.556836
     64 C21         2.5920   -4.1340   -4.7880 c3        1 MOL     -0.136879
     65 C22         1.3340   -3.5020   -4.3460 c         1 MOL      0.548747
     66 N7          0.8230   -2.4770   -5.0770 n         1 MOL     -0.748618
     67 O11         0.7130   -3.9920   -3.3700 o         1 MOL     -0.591212
     68 H28         3.4900   -3.8370   -1.9840 hn        1 MOL     -0.120471
     69 H29         4.5710   -3.6370   -4.8610 h1        1 MOL      0.125808
     70 H30         2.6080   -5.1660   -4.4570 hc        1 MOL      0.069941
     71 H31         2.6930   -4.0860   -5.8740 hc        1 MOL      0.069941
     72 H32         1.2970   -2.1920   -5.9280 hn        1 MOL      0.395426
     73 H33        -0.0970   -2.1800   -4.7830 hn        1 MOL      0.395426
     74 N8          3.6910   -1.3130   -2.9110 n         1 MOL     -0.081114
     75 C23         3.8500    0.1270   -2.7430 c3        1 MOL     -0.276839
     76 C24         2.5220    0.8290   -2.6960 c         1 MOL      0.776883
     77 O12         1.5920    0.5520   -3.4300 o         1 MOL     -0.594322
     78 H34         3.6140   -1.8070   -2.0420 hn        1 MOL      0.048627
     79 H35         4.3840    0.5590   -3.5910 h1        1 MOL      0.127204
     80 H36         4.3790    0.2130   -1.7980 h1        1 MOL      0.127204
     81 N9          2.4700    1.8240   -1.8230 n         1 MOL     -0.602987
     82 C25         1.3550    2.7150   -1.7060 c3        1 MOL      0.021037
     83 C26         0.2060    2.1100   -0.8730 c         1 MOL      0.503202
     84 O13         0.4470    1.1650   -0.1850 o         1 MOL     -0.490519
     85 C27         1.9110    4.0890   -1.1990 c3        1 MOL      0.075436
     86 C28         0.9640    5.2490   -1.0480 ca        1 MOL     -0.067585
     87 C29         0.5500    5.8640   -2.2440 ca        1 MOL     -0.042496
     88 C30         0.7360    5.8930    0.1690 ca        1 MOL     -0.042496
     89 C31        -0.2900    7.0020   -2.2090 ca        1 MOL     -0.286352
     90 C32        -0.1300    7.0720    0.2360 ca        1 MOL     -0.286352
     91 C33        -0.6430    7.5220   -0.9530 ca        1 MOL      0.373875
     92 O14        -1.3380    8.7070   -0.9950 oh        1 MOL     -0.511246
     93 H37         3.2130    1.8140   -1.1500 hn        1 MOL      0.341324
     94 H38         0.9090    2.8310   -2.6950 h1        1 MOL      0.062150
     95 H39         2.7870    4.3280   -1.8020 hc        1 MOL      0.057980
     96 H40         2.3660    3.9320   -0.2140 hc        1 MOL      0.057980
     97 H41         0.7320    5.3700   -3.1900 ha        1 MOL      0.097336
     98 H42         1.1200    5.5530    1.1230 ha        1 MOL      0.097336
     99 H43        -0.6120    7.4660   -3.1310 ha        1 MOL      0.150158
    100 H44        -0.4470    7.5300    1.1600 ha        1 MOL      0.150158
    101 H45        -1.3650    9.0550   -0.1020 ho        1 MOL      0.355813
    102 N10        -1.0440    2.4930   -0.9530 n         1 MOL     -0.519146
    103 C34        -2.2360    2.1710   -0.0340 c3        1 MOL     -0.095114
    104 C35        -3.5010    1.6820   -0.8060 c         1 MOL      0.535608
    105 O15        -4.2600    0.8440   -0.3130 o         1 MOL     -0.530647
    106 C36        -2.4210    3.4460    0.8540 c3        1 MOL      0.132268
    107 C37        -3.3120    3.1500    2.0740 c3        1 MOL      0.221902
    108 C38        -2.9430    4.6330    0.0740 c3        1 MOL     -0.611976
    109 C39        -3.2340    4.3850    3.0000 c3        1 MOL     -0.242159
    110 H46        -1.2460    3.2850   -1.5430 hn        1 MOL      0.243167
    111 H47        -1.8780    1.4200    0.6660 h1        1 MOL      0.120090
    112 H48        -1.4300    3.6380    1.2790 hc        1 MOL      0.057138
    113 H49        -2.9240    2.2900    2.6190 hc        1 MOL     -0.029949
    114 H50        -4.3060    2.8970    1.7120 hc        1 MOL     -0.029949
    115 H51        -2.3580    4.6430   -0.8380 hc        1 MOL      0.144154
    116 H52        -4.0230    4.5380   -0.0850 hc        1 MOL      0.144154
    117 H53        -2.8480    5.5230    0.6930 hc        1 MOL      0.144154
    118 H54        -2.1940    4.5870    3.2700 hc        1 MOL      0.053669
    119 H55        -3.7610    5.2790    2.6690 hc        1 MOL      0.053669
    120 H56        -3.7710    4.0700    3.8850 hc        1 MOL      0.053669
    121 N11        -3.7020    2.0910   -2.0940 n         1 MOL     -0.194106
    122 C40        -4.7400    1.4590   -2.9870 c3        1 MOL     -0.182833
    123 C41        -6.2240    1.8030   -2.7070 c         1 MOL      0.290489
    124 O16        -7.1060    1.1200   -3.2660 o         1 MOL     -0.493753
    125 C42        -4.3720    1.7560   -4.4250 c3        1 MOL      0.234010
    126 O17        -2.9940    1.5740   -4.7320 oh        1 MOL     -0.647371
    127 H57        -3.0300    2.7000   -2.5270 hn        1 MOL      0.238174
    128 H58        -4.6550    0.3710   -2.8670 h1        1 MOL      0.177661
    129 H59        -4.6570    2.7190   -4.8510 h1        1 MOL      0.030951
    130 H60        -4.7610    1.0370   -5.1380 h1        1 MOL      0.030951
    131 H61        -2.8720    1.7850   -5.6560 ho        1 MOL      0.422105
    132 N12        -6.5060    2.7310   -1.8690 n         1 MOL     -0.067858
    133 C43        -7.8220    3.0630   -1.2370 c3        1 MOL      0.269140
    134 C44        -8.7270    1.8400   -0.8830 c         1 MOL      0.373554
    135 O18        -9.8110    1.6400   -1.4920 o         1 MOL     -0.489384
    136 C45        -8.4740    4.1350   -2.1440 c3        1 MOL     -0.260104
    137 H62        -5.6720    3.1060   -1.4390 hn        1 MOL      0.047681
    138 H63        -7.6730    3.5600   -0.2760 h1        1 MOL      0.010065
    139 H64        -7.8260    4.9830   -2.3590 hc        1 MOL      0.068753
    140 H65        -8.7120    3.6970   -3.1140 hc        1 MOL      0.068753
    141 H66        -9.4060    4.4260   -1.6680 hc        1 MOL      0.068753
    142 N13        -8.2190    0.9060   -0.0360 n         1 MOL     -0.338079
    143 C46        -8.9780   -0.2690    0.4060 c3        1 MOL      0.090508
    144 C47        -8.3800   -0.8040    1.7950 c         1 MOL      0.532690
    145 O19        -7.4150   -0.2340    2.3030 o         1 MOL     -0.500538
    146 C48        -9.0710   -1.3240   -0.7120 c3        1 MOL     -0.261246
    147 H67        -7.3360    1.0910    0.4270 hn        1 MOL      0.222438
    148 H68        -9.9490    0.1490    0.6970 h1        1 MOL      0.028337
    149 H69        -9.8160   -2.1020   -0.5360 hc        1 MOL      0.085690
    150 H70        -9.2470   -0.9870   -1.7270 hc        1 MOL      0.085690
    151 H71        -8.1460   -1.8820   -0.8170 hc        1 MOL      0.085690
    152 N14        -9.1350   -1.7050    2.4560 n         1 MOL     -0.486486
    153 C49        -8.7380   -2.1650    3.8470 c3        1 MOL      0.019897
    154 C50        -8.4830   -1.0210    4.8460 c         1 MOL      0.367823
    155 O20        -7.7950   -1.1420    5.8630 o         1 MOL     -0.491031
    156 C51        -7.5640   -3.1420    3.7700 c3        1 MOL      0.153657
    157 C52        -8.0300   -4.6240    3.6880 c3        1 MOL     -0.283659
    158 C53        -6.7630   -5.5690    3.5920 c         1 MOL      0.710810
    159 O21        -6.4050   -6.0270    2.4290 o         1 MOL     -0.675665
    160 O22        -6.1840   -5.8720    4.6320 o         1 MOL     -0.675665
    161 H72       -10.0340   -2.0380    2.1210 hn        1 MOL      0.313542
    162 H73        -9.6220   -2.6070    4.3040 h1        1 MOL      0.062188
    163 H74        -6.9230   -3.0680    4.6520 hc        1 MOL      0.010731
    164 H75        -6.9170   -3.0420    2.9040 hc        1 MOL      0.010731
    165 H76        -8.6240   -4.7420    2.7870 hc        1 MOL      0.032209
    166 H77        -8.5190   -4.8990    4.6200 hc        1 MOL      0.032209
    167 N15        -9.1280    0.0980    4.6390 n         1 MOL     -0.180190
    168 C54        -8.9930    1.3250    5.4100 c3        1 MOL     -0.056029
    169 H78        -8.5660    1.0950    6.3850 h1        1 MOL      0.054227
    170 H79        -8.3380    2.0160    4.8800 h1        1 MOL      0.054227
    171 H80        -9.9740    1.7820    5.5420 h1        1 MOL      0.054227
    172 H81        -9.8940    0.0960    3.9900 hn        1 MOL      0.185524
    173 Ca1        -0.0960   -4.1730   -0.9610 Ca        1 MOL      1.756372
    174 O23        -0.1210   -6.0530    0.8830 oh        1 MOL     -0.824782
    175 H82         0.1590   -6.9060    0.5620 ho        1 MOL      0.413639
    176 H83        -0.7610   -6.2370    1.5620 ho        1 MOL      0.413639
    177 O24        -2.0690   -3.8570    1.0320 oh        1 MOL     -0.824782
    178 H84        -2.7200   -4.5400    1.2090 ho        1 MOL      0.413639
    179 H85        -2.2530   -3.1810    1.6960 ho        1 MOL      0.413639
    180 O25        -0.5890   -1.5170   -1.2130 oh        1 MOL     -0.824782
    181 H86         0.0820   -0.9950   -0.7830 ho        1 MOL      0.413639
    182 H87        -0.9870   -0.9190   -1.8520 ho        1 MOL      0.413639
    183 O26         2.1060   -5.8110   -1.4070 oh        1 MOL     -0.824782
    184 H88         2.3860   -6.0810   -2.2790 ho        1 MOL      0.413639
    185 H89         2.0980   -6.6140   -0.8910 ho        1 MOL      0.413639
    186 O27        -2.4420   -3.6460   -2.1560 oh        1 MOL     -0.824782
    187 H90        -2.7120   -2.7340   -2.0100 ho        1 MOL      0.413639
    188 H91        -3.2560   -4.1420   -2.0860 ho        1 MOL      0.413639
    189 O28        -0.9510   -6.5800   -2.3130 oh        1 MOL     -0.824782
    190 H92        -0.7070   -6.9780   -3.1400 ho        1 MOL      0.413639
    191 H93        -1.4230   -7.2680   -1.8320 ho        1 MOL      0.413639
@<TRIPOS>BOND
     1    1    2 1   
     2    1    4 1   
     3    1    5 1   
     4    1    6 1   
     5    2    3 2   
     6    2    7 1   
     7    7    8 1   
     8    7   15 1   
     9    8    9 1   
    10    8   11 1   
    11    8   16 1   
    12    9   10 2   
    13    9   19 1   
    14   11   12 1   
    15   11   17 1   
    16   11   18 1   
    17   12   13 1   
    18   12   14 1   
    19   19   20 1   
    20   19   28 1   
    21   20   21 1   
    22   20   23 1   
    23   20   29 1   
    24   21   22 2   
    25   21   41 1   
    26   23   24 1   
    27   23   30 1   
    28   23   31 1   
    29   24   25 1   
    30   24   32 1   
    31   24   33 1   
    32   25   26 1   
    33   25   34 1   
    34   25   35 1   
    35   26   27 1   
    36   26   36 1   
    37   26   37 1   
    38   27   38 1   
    39   27   39 1   
    40   27   40 1   
    41   41   42 1   
    42   41   49 1   
    43   42   43 1   
    44   42   45 1   
    45   42   50 1   
    46   43   44 2   
    47   43   53 1   
    48   45   46 1   
    49   45   51 1   
    50   45   52 1   
    51   46   47 1   
    52   46   48 1   
    53   53   54 1   
    54   53   57 1   
    55   54   55 1   
    56   54   58 1   
    57   54   59 1   
    58   55   56 2   
    59   55   60 1   
    60   60   61 1   
    61   60   68 1   
    62   61   62 1   
    63   61   64 1   
    64   61   69 1   
    65   62   63 2   
    66   62   74 1   
    67   64   65 1   
    68   64   70 1   
    69   64   71 1   
    70   65   66 1   
    71   65   67 2   
    72   66   72 1   
    73   66   73 1   
    74   74   75 1   
    75   74   78 1   
    76   75   76 1   
    77   75   79 1   
    78   75   80 1   
    79   76   77 2   
    80   76   81 1   
    81   81   82 1   
    82   81   93 1   
    83   82   83 1   
    84   82   85 1   
    85   82   94 1   
    86   83   84 2   
    87   83  102 1   
    88   85   86 1   
    89   85   95 1   
    90   85   96 1   
    91   86   87 ar  
    92   86   88 ar  
    93   87   89 ar  
    94   87   97 1   
    95   88   90 ar  
    96   88   98 1   
    97   89   91 ar  
    98   89   99 1   
    99   90   91 ar  
   100   90  100 1   
   101   91   92 1   
   102   92  101 1   
   103  102  103 1   
   104  102  110 1   
   105  103  104 1   
   106  103  106 1   
   107  103  111 1   
   108  104  105 2   
   109  104  121 1   
   110  106  107 1   
   111  106  108 1   
   112  106  112 1   
   113  107  109 1   
   114  107  113 1   
   115  107  114 1   
   116  108  115 1   
   117  108  116 1   
   118  108  117 1   
   119  109  118 1   
   120  109  119 1   
   121  109  120 1   
   122  121  122 1   
   123  121  127 1   
   124  122  123 1   
   125  122  125 1   
   126  122  128 1   
   127  123  124 2   
   128  123  132 1   
   129  125  126 1   
   130  125  129 1   
   131  125  130 1   
   132  126  131 1   
   133  132  133 1   
   134  132  137 1   
   135  133  134 1   
   136  133  136 1   
   137  133  138 1   
   138  134  135 2   
   139  134  142 1   
   140  136  139 1   
   141  136  140 1   
   142  136  141 1   
   143  142  143 1   
   144  142  147 1   
   145  143  144 1   
   146  143  146 1   
   147  143  148 1   
   148  144  145 2   
   149  144  152 1   
   150  146  149 1   
   151  146  150 1   
   152  146  151 1   
   153  152  153 1   
   154  152  161 1   
   155  153  154 1   
   156  153  156 1   
   157  153  162 1   
   158  154  155 2   
   159  154  167 1   
   160  156  157 1   
   161  156  163 1   
   162  156  164 1   
   163  157  158 1   
   164  157  165 1   
   165  157  166 1   
   166  158  159 1   
   167  158  160 1   
   168  167  168 1   
   169  167  172 1   
   170  168  169 1   
   171  168  170 1   
   172  168  171 1   
   173  174  175 1   
   174  174  176 1   
   175  177  178 1   
   176  177  179 1   
   177  180  181 1   
   178  180  182 1   
   179  183  184 1   
   180  183  185 1   
   181  186  187 1   
   182  186  188 1   
   183  189  190 1   
   184  189  191 1   
@<TRIPOS>SUBSTRUCTURE
     1 MOL         1 TEMP              0 ****  ****    0 ROOT
