@<TRIPOS>MOLECULE
MOL
  184   179     1     0     0
SMALL
resp


@<TRIPOS>ATOM
      1 C1        -10.4780    5.1170    4.8010 c3        1 MOL     -0.496241
      2 C2        -11.3420    4.5330    3.6440 c         1 MOL      0.838084
      3 O1        -12.3790    5.1370    3.3600 o         1 MOL     -0.641751
      4 H1         -9.8920    5.9570    4.4270 hc        1 MOL      0.121995
      5 H2        -11.1290    5.4580    5.6060 hc        1 MOL      0.121995
      6 H3         -9.8060    4.3460    5.1780 hc        1 MOL      0.121995
      7 N1        -11.0840    3.3310    3.0800 n         1 MOL     -0.493936
      8 C3         -9.9610    2.4720    3.4310 c3        1 MOL     -0.039461
      9 C4        -10.2830    0.9980    3.1170 c         1 MOL      0.517930
     10 O2        -11.3410    0.5960    2.6620 o         1 MOL     -0.461335
     11 C5         -8.6870    2.8700    2.6060 c3        1 MOL     -0.209428
     12 C6         -8.9530    2.8920    1.1080 c         1 MOL      0.736743
     13 O3         -9.8910    2.2720    0.5570 o         1 MOL     -0.654066
     14 O4         -8.1850    3.4970    0.3750 o         1 MOL     -0.654066
     15 H4        -11.7940    2.9690    2.4670 hn        1 MOL      0.236870
     16 H5         -9.6820    2.6040    4.4790 h1        1 MOL      0.058194
     17 H6         -7.8660    2.1500    2.6740 hc        1 MOL      0.056868
     18 H7         -8.2320    3.8170    2.8740 hc        1 MOL      0.056868
     19 N2         -9.3530    0.0890    3.4300 n         1 MOL     -0.300733
     20 C7         -9.6690   -1.3580    3.6860 c3        1 MOL      0.041491
     21 C8        -10.2240   -2.2320    2.4740 c         1 MOL      0.508718
     22 O5        -11.1420   -3.0260    2.6380 o         1 MOL     -0.524783
     23 C9        -10.5270   -1.4970    4.9710 c3        1 MOL     -0.336123
     24 H8         -8.4900    0.3720    3.8610 hn        1 MOL      0.233504
     25 H9         -8.6610   -1.7090    3.8930 h1        1 MOL      0.088177
     26 H10       -11.5600   -1.1740    4.8750 hc        1 MOL      0.089158
     27 H11       -10.3530   -2.5070    5.3420 hc        1 MOL      0.089158
     28 H12       -10.0900   -1.0010    5.8400 hc        1 MOL      0.089158
     29 N3         -9.5880   -2.0460    1.3450 n         1 MOL     -0.338390
     30 C10        -9.9530   -2.4790   -0.0290 c3        1 MOL     -0.130768
     31 C11        -8.8880   -3.4730   -0.6000 c         1 MOL      0.702163
     32 O6         -8.2390   -4.1130    0.1770 o         1 MOL     -0.537530
     33 C12       -10.0120   -1.1490   -0.9000 c3        1 MOL     -0.027480
     34 C13        -8.8390   -0.2660   -0.9700 c         1 MOL      0.314722
     35 O7         -7.8340   -0.5010   -0.2320 o         1 MOL     -0.589005
     36 O8         -8.7230    0.6790   -1.8150 o         1 MOL     -0.589005
     37 H13        -8.8610   -1.3460    1.4260 hn        1 MOL      0.258196
     38 H14       -10.9440   -2.9240   -0.0740 h1        1 MOL      0.095280
     39 H15       -10.7880   -0.5310   -0.4420 hc        1 MOL      0.064565
     40 H16       -10.3740   -1.3150   -1.9170 hc        1 MOL      0.064565
     41 N4         -8.8360   -3.6360   -1.8900 n         1 MOL     -0.507952
     42 C14        -7.9610   -4.6590   -2.5580 c3        1 MOL     -0.352727
     43 C15        -6.4800   -4.2330   -2.6260 c         1 MOL      0.597635
     44 O9         -5.7440   -4.9780   -3.2300 o         1 MOL     -0.546944
     45 H17        -9.2850   -2.9540   -2.4790 hn        1 MOL      0.302457
     46 H18        -8.3080   -4.6700   -3.5920 h1        1 MOL      0.178706
     47 H19        -8.1170   -5.5830   -2.0150 h1        1 MOL      0.178706
     48 N5         -6.0520   -3.0750   -2.0780 n         1 MOL     -0.312040
     49 C16        -4.6450   -2.5650   -2.2050 c3        1 MOL      0.192750
     50 C17        -3.7620   -2.9620   -1.0200 c         1 MOL      0.538504
     51 O10        -4.2680   -3.1900    0.1060 o         1 MOL     -0.504099
     52 C18        -4.7290   -1.0670   -2.4640 c3        1 MOL     -0.383305
     53 C19        -5.5260   -0.8140   -3.7720 c         1 MOL      0.638320
     54 N6         -6.7190   -0.2640   -3.6730 n         1 MOL     -0.738392
     55 O11        -5.0640   -1.1100   -4.8740 o         1 MOL     -0.585166
     56 H20        -6.6020   -2.6380   -1.3600 hn        1 MOL      0.262894
     57 H21        -4.1180   -3.1170   -2.9890 h1        1 MOL      0.019569
     58 H22        -3.7230   -0.6640   -2.6010 hc        1 MOL      0.118900
     59 H23        -5.1220   -0.5310   -1.5940 hc        1 MOL      0.118900
     60 H24        -7.0760   -0.0300   -2.7590 hn        1 MOL      0.340974
     61 H25        -7.1980    0.1050   -4.4810 hn        1 MOL      0.340974
     62 N7         -2.4360   -2.7670   -1.3370 n         1 MOL     -0.594847
     63 C20        -1.2890   -3.0160   -0.3790 c3        1 MOL      0.048856
     64 C21        -0.8310   -4.4800   -0.3770 c         1 MOL      0.594819
     65 O12        -1.4200   -5.4080   -1.0150 o         1 MOL     -0.519032
     66 H26        -2.1420   -2.4330   -2.2430 hn        1 MOL      0.353818
     67 H27        -1.5820   -2.7340    0.6320 h1        1 MOL      0.073819
     68 H28        -0.5190   -2.2980   -0.6660 h1        1 MOL      0.073819
     69 N8          0.3440   -4.6710    0.2980 n         1 MOL     -0.589465
     70 C22         1.0530   -3.7630    1.2100 c3        1 MOL      0.219182
     71 C23         2.2840   -3.2170    0.4670 c         1 MOL      0.558410
     72 O13         2.8200   -3.9550   -0.4390 o         1 MOL     -0.550551
     73 C24         1.5930   -4.5740    2.3940 c3        1 MOL      0.409542
     74 C25         2.2820   -3.7620    3.5170 c3        1 MOL     -0.225818
     75 O14         0.5830   -5.3180    2.9900 oh        1 MOL     -0.651074
     76 H29         0.5530   -5.6330    0.5120 hn        1 MOL      0.288185
     77 H30         0.3180   -2.9990    1.4800 h1        1 MOL      0.011254
     78 H31         2.4080   -5.2220    2.0760 h1        1 MOL     -0.021821
     79 H32         1.0140   -5.9750    3.5330 ho        1 MOL      0.394338
     80 H33         2.9220   -3.0020    3.0540 hc        1 MOL      0.046197
     81 H34         1.5020   -3.2220    4.0550 hc        1 MOL      0.046197
     82 H35         2.8760   -4.3790    4.1960 hc        1 MOL      0.046197
     83 N9          2.6800   -1.9760    0.7430 n         1 MOL     -0.716568
     84 C26         3.9140   -1.2630    0.3250 c3        1 MOL      0.065521
     85 C27         4.6950   -0.7630    1.6000 c         1 MOL      0.696575
     86 O15         4.1130   -0.1540    2.4770 o         1 MOL     -0.605337
     87 C28         3.4880   -0.1060   -0.6200 c3        1 MOL      0.106342
     88 C29         3.0910   -0.6680   -1.9730 c3        1 MOL      0.149906
     89 C30         4.5770    0.9360   -0.6660 c3        1 MOL     -0.286621
     90 C31         2.4300    0.2450   -3.0160 c3        1 MOL     -0.371778
     91 H36         2.1810   -1.5280    1.4970 hn        1 MOL      0.294294
     92 H37         4.5530   -2.0420   -0.0940 h1        1 MOL      0.074825
     93 H38         2.6520    0.3370   -0.0790 hc        1 MOL      0.009913
     94 H39         2.4860   -1.5670   -1.9220 hc        1 MOL      0.021692
     95 H40         4.0270   -1.0050   -2.4110 hc        1 MOL      0.021692
     96 H41         5.5530    0.6250   -1.0110 hc        1 MOL      0.076298
     97 H42         4.1260    1.6070   -1.3930 hc        1 MOL      0.076298
     98 H43         4.7540    1.3610    0.3250 hc        1 MOL      0.076298
     99 H44         1.4400    0.4600   -2.6270 hc        1 MOL      0.078076
    100 H45         3.0810    1.0730   -3.3010 hc        1 MOL      0.078076
    101 H46         2.3480   -0.4220   -3.8700 hc        1 MOL      0.078076
    102 N10         5.9700   -0.8440    1.7560 n         1 MOL     -0.555069
    103 C32         6.9960   -1.5020    0.9470 c3        1 MOL      0.073586
    104 C33         8.3910   -0.9260    1.1730 c         1 MOL      0.686341
    105 O16         8.7220   -0.3190    2.1660 o         1 MOL     -0.544088
    106 C34         6.9270   -3.0140    1.1460 c3        1 MOL     -0.167311
    107 C35         8.1120   -3.7130    0.5040 c         1 MOL      0.648766
    108 O17         8.7740   -4.5130    1.2250 o         1 MOL     -0.658082
    109 O18         8.3730   -3.5070   -0.7660 o         1 MOL     -0.658082
    110 H47         6.3050   -0.3070    2.5470 hn        1 MOL      0.358431
    111 H48         6.6890   -1.4260   -0.0990 h1        1 MOL      0.000756
    112 H49         6.0150   -3.4470    0.7200 hc        1 MOL      0.044863
    113 H50         6.9910   -3.1950    2.2210 hc        1 MOL      0.044863
    114 N11         9.2460   -0.9660    0.1430 n         1 MOL     -0.595896
    115 C36        10.5470   -0.2980    0.1100 c3        1 MOL      0.314686
    116 C37        10.8380    0.0300   -1.4000 c         1 MOL      0.284424
    117 O19        10.5940   -0.8200   -2.2930 o         1 MOL     -0.502769
    118 C38        11.6190   -1.3230    0.6950 c3        1 MOL     -0.083596
    119 C39        12.9720   -0.8370    0.6800 ca        1 MOL      0.164506
    120 C40        13.8230   -0.9030   -0.4640 ca        1 MOL     -0.243583
    121 C41        13.4220   -0.2010    1.8100 ca        1 MOL     -0.243583
    122 C42        15.0880   -0.3890   -0.3610 ca        1 MOL     -0.027854
    123 C43        14.7330    0.2830    1.9090 ca        1 MOL     -0.027854
    124 C44        15.5890    0.1020    0.8460 ca        1 MOL     -0.215121
    125 H51         9.0030   -1.4590   -0.7070 hn        1 MOL      0.297537
    126 H52        10.4440    0.5810    0.7390 h1        1 MOL     -0.011275
    127 H53        11.5950   -2.2970    0.2090 hc        1 MOL      0.058081
    128 H54        11.3950   -1.5170    1.7480 hc        1 MOL      0.058081
    129 H55        13.4570   -1.1490   -1.4510 ha        1 MOL      0.138020
    130 H56        12.7380   -0.1100    2.6370 ha        1 MOL      0.138020
    131 H57        15.7000   -0.4320   -1.2590 ha        1 MOL      0.084359
    132 H58        15.0800    0.7050    2.8420 ha        1 MOL      0.084359
    133 H59        16.6360    0.2810    1.0330 ha        1 MOL      0.102728
    134 N12        11.5040    1.1710   -1.6710 n         1 MOL      0.031994
    135 C45        11.9410    2.2330   -0.7900 c3        1 MOL      0.120391
    136 C46        10.8490    3.2460   -0.4960 c         1 MOL      0.429564
    137 O20        11.1020    4.2680    0.1630 o         1 MOL     -0.551634
    138 C47        13.3090    2.8300   -1.3070 c3        1 MOL     -0.022657
    139 C48        13.2470    2.4220   -2.7810 c3        1 MOL     -0.135835
    140 C49        12.0750    1.4070   -3.0130 c3        1 MOL      0.014592
    141 H60        12.2580    1.8200    0.1670 h1        1 MOL      0.008594
    142 H61        13.3380    3.9040   -1.1620 hc        1 MOL      0.021646
    143 H62        14.2040    2.3790   -0.8760 hc        1 MOL      0.021646
    144 H63        12.9640    3.3200   -3.3320 hc        1 MOL      0.032456
    145 H64        14.1460    1.9170   -3.1410 hc        1 MOL      0.032456
    146 H65        11.3260    1.8300   -3.6780 h1        1 MOL      0.030007
    147 H66        12.4530    0.5000   -3.4920 h1        1 MOL      0.030007
    148 N13         9.5820    2.9800   -0.9040 n         1 MOL     -0.375224
    149 C50         8.4100    3.7750   -0.4860 c3        1 MOL      0.081074
    150 C51         7.4010    3.5320   -1.6480 c         1 MOL      0.357173
    151 O21         7.3200    2.4610   -2.1550 o         1 MOL     -0.525818
    152 C52         7.8660    3.2740    0.8760 c3        1 MOL     -0.078501
    153 C53         8.8870    3.2470    2.0420 c3        1 MOL     -0.319629
    154 C54         8.1390    3.2810    3.3780 c         1 MOL      0.768462
    155 O22         8.1750    4.3350    4.0740 o         1 MOL     -0.659722
    156 O23         7.4460    2.3070    3.6480 o         1 MOL     -0.659722
    157 H67         9.4550    2.1360   -1.4470 hn        1 MOL      0.220149
    158 H68         8.7270    4.8120   -0.5910 h1        1 MOL      0.092619
    159 H69         7.4030    2.3210    0.5810 hc        1 MOL      0.079630
    160 H70         7.0870    3.9750    1.1600 hc        1 MOL      0.079630
    161 H71         9.4720    4.1650    1.9300 hc        1 MOL      0.088193
    162 H72         9.5030    2.3450    2.0800 hc        1 MOL      0.088193
    163 N14         6.5180    4.4220   -1.9570 n         1 MOL     -0.264441
    164 C55         6.4130    5.7440   -1.3610 c3        1 MOL     -0.184040
    165 H73         7.3840    6.2360   -1.3970 h1        1 MOL      0.083801
    166 H74         5.6850    6.3370   -1.9150 h1        1 MOL      0.083801
    167 H75         6.0910    5.6510   -0.3240 h1        1 MOL      0.083801
    168 H76         5.8760    4.2390   -2.7230 hn        1 MOL      0.274039
    169 Ca1        -9.6600    3.0360   -1.9680 Ca        1 MOL      1.659717
    170 O24       -12.0200    1.7070   -2.8850 oh        1 MOL     -0.836708
    171 H77       -12.3430    2.2740   -3.5850 ho        1 MOL      0.378232
    172 H78       -12.7830    1.1980   -2.6150 ho        1 MOL      0.378232
    173 O25        -9.8820    5.5520   -0.7770 oh        1 MOL     -0.836708
    174 H79        -9.8920    6.0160    0.0550 ho        1 MOL      0.378232
    175 H80        -9.8720    6.2490   -1.4340 ho        1 MOL      0.378232
    176 O26        -7.4330    4.3180   -2.6790 oh        1 MOL     -0.836708
    177 H81        -7.0900    5.1270   -2.2960 ho        1 MOL      0.378232
    178 H82        -7.5430    4.5220   -3.6110 ho        1 MOL      0.378232
    179 O27        -9.4210    2.5600   -4.5050 oh        1 MOL     -0.836708
    180 H83        -9.2770    1.6570   -4.7490 ho        1 MOL      0.378232
    181 H84        -9.0800    3.0730   -5.2410 ho        1 MOL      0.378232
    182 O28       -11.0900    4.7820   -3.3480 oh        1 MOL     -0.836708
    183 H85       -10.7680    5.6580   -3.5710 ho        1 MOL      0.378232
    184 H86       -11.8140    4.6260   -3.9590 ho        1 MOL      0.378232
@<TRIPOS>BOND
     1    1    2 1   
     2    1    4 1   
     3    1    5 1   
     4    1    6 1   
     5    2    3 2   
     6    2    7 1   
     7    7    8 1   
     8    7   15 1   
     9    8    9 1   
    10    8   11 1   
    11    8   16 1   
    12    9   10 2   
    13    9   19 1   
    14   11   12 1   
    15   11   17 1   
    16   11   18 1   
    17   12   13 1   
    18   12   14 1   
    19   19   20 1   
    20   19   24 1   
    21   20   21 1   
    22   20   23 1   
    23   20   25 1   
    24   21   22 2   
    25   21   29 1   
    26   23   26 1   
    27   23   27 1   
    28   23   28 1   
    29   29   30 1   
    30   29   37 1   
    31   30   31 1   
    32   30   33 1   
    33   30   38 1   
    34   31   32 2   
    35   31   41 1   
    36   33   34 1   
    37   33   39 1   
    38   33   40 1   
    39   34   35 1   
    40   34   36 1   
    41   41   42 1   
    42   41   45 1   
    43   42   43 1   
    44   42   46 1   
    45   42   47 1   
    46   43   44 2   
    47   43   48 1   
    48   48   49 1   
    49   48   56 1   
    50   49   50 1   
    51   49   52 1   
    52   49   57 1   
    53   50   51 2   
    54   50   62 1   
    55   52   53 1   
    56   52   58 1   
    57   52   59 1   
    58   53   54 1   
    59   53   55 2   
    60   54   60 1   
    61   54   61 1   
    62   62   63 1   
    63   62   66 1   
    64   63   64 1   
    65   63   67 1   
    66   63   68 1   
    67   64   65 2   
    68   64   69 1   
    69   69   70 1   
    70   69   76 1   
    71   70   71 1   
    72   70   73 1   
    73   70   77 1   
    74   71   72 2   
    75   71   83 1   
    76   73   74 1   
    77   73   75 1   
    78   73   78 1   
    79   74   80 1   
    80   74   81 1   
    81   74   82 1   
    82   75   79 1   
    83   83   84 1   
    84   83   91 1   
    85   84   85 1   
    86   84   87 1   
    87   84   92 1   
    88   85   86 2   
    89   85  102 1   
    90   87   88 1   
    91   87   89 1   
    92   87   93 1   
    93   88   90 1   
    94   88   94 1   
    95   88   95 1   
    96   89   96 1   
    97   89   97 1   
    98   89   98 1   
    99   90   99 1   
   100   90  100 1   
   101   90  101 1   
   102  102  103 1   
   103  102  110 1   
   104  103  104 1   
   105  103  106 1   
   106  103  111 1   
   107  104  105 2   
   108  104  114 1   
   109  106  107 1   
   110  106  112 1   
   111  106  113 1   
   112  107  108 1   
   113  107  109 1   
   114  114  115 1   
   115  114  125 1   
   116  115  116 1   
   117  115  118 1   
   118  115  126 1   
   119  116  117 2   
   120  116  134 1   
   121  118  119 1   
   122  118  127 1   
   123  118  128 1   
   124  119  120 ar  
   125  119  121 ar  
   126  120  122 ar  
   127  120  129 1   
   128  121  123 ar  
   129  121  130 1   
   130  122  124 ar  
   131  122  131 1   
   132  123  124 ar  
   133  123  132 1   
   134  124  133 1   
   135  134  135 1   
   136  134  140 1   
   137  135  136 1   
   138  135  138 1   
   139  135  141 1   
   140  136  137 2   
   141  136  148 1   
   142  138  139 1   
   143  138  142 1   
   144  138  143 1   
   145  139  140 1   
   146  139  144 1   
   147  139  145 1   
   148  140  146 1   
   149  140  147 1   
   150  148  149 1   
   151  148  157 1   
   152  149  150 1   
   153  149  152 1   
   154  149  158 1   
   155  150  151 2   
   156  150  163 1   
   157  152  153 1   
   158  152  159 1   
   159  152  160 1   
   160  153  154 1   
   161  153  161 1   
   162  153  162 1   
   163  154  155 1   
   164  154  156 1   
   165  163  164 1   
   166  163  168 1   
   167  164  165 1   
   168  164  166 1   
   169  164  167 1   
   170  170  171 1   
   171  170  172 1   
   172  173  174 1   
   173  173  175 1   
   174  176  177 1   
   175  176  178 1   
   176  179  180 1   
   177  179  181 1   
   178  182  183 1   
   179  182  184 1   
@<TRIPOS>SUBSTRUCTURE
     1 MOL         1 TEMP              0 ****  ****    0 ROOT
