@<TRIPOS>MOLECULE
MOL
  181   177     1     0     0
SMALL
resp


@<TRIPOS>ATOM
      1 C1          0.5100    6.4520   -2.6460 c3        1 MOL     -0.362784
      2 C2          1.9000    6.7670   -2.1290 c         1 MOL      0.737195
      3 O1          2.0890    7.6940   -1.3720 o         1 MOL     -0.595411
      4 H1          0.5370    6.3700   -3.7330 hc        1 MOL      0.079050
      5 H2          0.1670    5.5080   -2.2200 hc        1 MOL      0.079050
      6 H3         -0.1750    7.2510   -2.3590 hc        1 MOL      0.079050
      7 N1          2.8890    6.0700   -2.6180 n         1 MOL     -0.634077
      8 C3          4.1710    5.9220   -1.8990 c3        1 MOL      0.293151
      9 C4          3.9850    4.8540   -0.6810 c         1 MOL      0.624774
     10 O2          3.3260    3.8730   -0.8160 o         1 MOL     -0.637403
     11 C5          5.2590    5.3850   -2.8380 c3        1 MOL     -0.163811
     12 C6          6.6550    5.3510   -2.1990 c         1 MOL      0.648318
     13 O3          7.0470    6.2500   -1.3920 o         1 MOL     -0.713522
     14 O4          7.3860    4.3550   -2.4740 o         1 MOL     -0.713522
     15 H4          2.7490    5.5640   -3.4830 hn        1 MOL      0.291172
     16 H5          4.4950    6.8640   -1.4480 h1        1 MOL     -0.020869
     17 H6          5.3140    6.1550   -3.6110 hc        1 MOL      0.010054
     18 H7          5.0460    4.4310   -3.3150 hc        1 MOL      0.010054
     19 N2          4.6300    5.0910    0.3930 n         1 MOL     -0.499954
     20 C7          4.6500    4.3460    1.6450 c3        1 MOL      0.230627
     21 C8          3.2520    3.9880    2.0660 c         1 MOL      0.605876
     22 O5          2.3760    4.8180    1.9960 o         1 MOL     -0.578988
     23 C9          5.4780    5.2720    2.6300 c3        1 MOL     -0.360131
     24 H8          5.1590    5.9580    0.3980 hn        1 MOL      0.267831
     25 H9          5.2350    3.4370    1.5220 h1        1 MOL      0.059458
     26 H10         5.3780    4.8040    3.6020 hc        1 MOL      0.106012
     27 H11         6.5370    5.3090    2.3560 hc        1 MOL      0.106012
     28 H12         5.1110    6.2950    2.5880 hc        1 MOL      0.106012
     29 N3          2.9850    2.7790    2.6140 n         1 MOL     -0.427859
     30 C10         3.9120    1.7810    3.1200 c3        1 MOL      0.045416
     31 C11         4.1370    0.6350    2.1500 c         1 MOL      0.453010
     32 O6          3.4040    0.5450    1.1720 o         1 MOL     -0.390208
     33 C12         3.5350    1.2700    4.4970 c3        1 MOL     -0.268395
     34 C13         3.1680    2.3000    5.5660 c         1 MOL      0.661463
     35 O7          4.0340    3.1810    5.7740 o         1 MOL     -0.691700
     36 O8          1.9850    2.3860    6.0710 o         1 MOL     -0.691700
     37 H13         2.0280    2.5800    2.8700 hn        1 MOL      0.311134
     38 H14         4.8150    2.3630    3.3040 h1        1 MOL      0.050223
     39 H15         4.3650    0.7110    4.9100 hc        1 MOL      0.038226
     40 H16         2.7740    0.4980    4.4470 hc        1 MOL      0.038226
     41 N4          5.1750   -0.2140    2.3280 n         1 MOL     -0.589241
     42 C14         5.5820   -1.2340    1.3790 c3        1 MOL      0.326670
     43 C15         6.7600   -0.7840    0.4890 c         1 MOL      0.467317
     44 O9          7.0860    0.4130    0.5860 o         1 MOL     -0.457100
     45 H17         5.8170    0.1390    3.0250 hn        1 MOL      0.313803
     46 H18         4.6930   -1.5090    0.8190 h1        1 MOL     -0.031798
     47 H19         5.9170   -2.0760    1.9950 h1        1 MOL     -0.031798
     48 N5          7.3250   -1.6520   -0.3810 n         1 MOL     -0.451352
     49 C16         7.0210   -3.0170   -0.6050 c3        1 MOL     -0.000467
     50 C17         5.6690   -3.2340   -1.4950 c         1 MOL      0.448322
     51 O10         5.0010   -2.2720   -1.9150 o         1 MOL     -0.388028
     52 C18         8.2530   -3.7430   -1.1740 c3        1 MOL      0.027718
     53 C19         8.3100   -3.4600   -2.6770 c         1 MOL      0.570681
     54 N6          8.0530   -4.4580   -3.5070 n         1 MOL     -0.781471
     55 O11         8.5870   -2.3280   -3.0120 o         1 MOL     -0.497360
     56 H20         8.1310   -1.3090   -0.8980 hn        1 MOL      0.306943
     57 H21         6.8440   -3.4110    0.3890 h1        1 MOL      0.019759
     58 H22         8.2290   -4.8330   -1.0750 hc        1 MOL      0.007956
     59 H23         9.2220   -3.4610   -0.7650 hc        1 MOL      0.007956
     60 H24         7.9240   -5.4170   -3.2250 hn        1 MOL      0.371162
     61 H25         7.9940   -4.0690   -4.4310 hn        1 MOL      0.371162
     62 N7          5.2800   -4.5050   -1.7330 n         1 MOL     -0.397442
     63 C20         4.1850   -4.7880   -2.7170 c3        1 MOL     -0.201713
     64 C21         2.8110   -5.1170   -2.1780 c         1 MOL      0.564518
     65 O12         1.8770   -5.1560   -2.9630 o         1 MOL     -0.538200
     66 H26         5.6230   -5.3290   -1.2870 hn        1 MOL      0.278664
     67 H27         4.4790   -5.6110   -3.3650 h1        1 MOL      0.133100
     68 H28         4.0810   -3.8570   -3.2710 h1        1 MOL      0.133100
     69 N8          2.6380   -5.2950   -0.8380 n         1 MOL     -0.396760
     70 C22         1.3900   -5.6080   -0.1710 c3        1 MOL     -0.096617
     71 C23         0.3600   -4.4200   -0.1980 c         1 MOL      0.853202
     72 O13         0.7650   -3.3090    0.1230 o         1 MOL     -0.789912
     73 C24         1.6760   -6.2040    1.2340 c3        1 MOL      0.314087
     74 C25         0.4070   -6.6990    1.9360 c3        1 MOL     -0.237799
     75 O14         2.3990   -7.4020    1.0160 oh        1 MOL     -0.599691
     76 H29         3.4200   -5.2920   -0.2000 hn        1 MOL      0.206938
     77 H30         0.7880   -6.3020   -0.7540 h1        1 MOL      0.042048
     78 H31         2.1980   -5.4950    1.8880 h1        1 MOL      0.018124
     79 H32         3.2660   -7.1960    0.6710 ho        1 MOL      0.362318
     80 H33        -0.4090   -7.2080    1.4110 hc        1 MOL      0.081752
     81 H34         0.7690   -7.4440    2.6430 hc        1 MOL      0.081752
     82 H35        -0.0240   -5.8710    2.4960 hc        1 MOL      0.081752
     83 N9         -0.8490   -4.7160   -0.5380 n         1 MOL     -0.359666
     84 C26        -1.9740   -3.8380   -0.5640 c3        1 MOL     -0.334641
     85 C27        -2.4480   -3.6360    0.8900 c         1 MOL      0.467957
     86 O15        -2.5920   -4.5920    1.7050 o         1 MOL     -0.557373
     87 C28        -2.9730   -4.3580   -1.5640 c3        1 MOL      0.133337
     88 C29        -4.2610   -3.5280   -1.5210 c3        1 MOL      0.133744
     89 C30        -2.4040   -4.4840   -2.9940 c3        1 MOL     -0.280602
     90 C31        -5.4160   -4.2410   -2.2130 c3        1 MOL     -0.188537
     91 H36        -1.0170   -5.6390   -0.9020 hn        1 MOL      0.272091
     92 H37        -1.7020   -2.8760   -1.0060 h1        1 MOL      0.230243
     93 H38        -3.2650   -5.3360   -1.1840 hc        1 MOL      0.027134
     94 H39        -4.0470   -2.5380   -1.9070 hc        1 MOL     -0.001880
     95 H40        -4.6270   -3.2580   -0.5230 hc        1 MOL     -0.001880
     96 H41        -2.5730   -5.5100   -3.3190 hc        1 MOL      0.075136
     97 H42        -2.9260   -3.9130   -3.7640 hc        1 MOL      0.075136
     98 H43        -1.3240   -4.3590   -3.0140 hc        1 MOL      0.075136
     99 H44        -5.1390   -4.5260   -3.2200 hc        1 MOL      0.028427
    100 H45        -5.9180   -5.0510   -1.6610 hc        1 MOL      0.028427
    101 H46        -6.1690   -3.4540   -2.2770 hc        1 MOL      0.028427
    102 N10        -2.8100   -2.4320    1.2050 n         1 MOL     -0.058279
    103 C32        -3.4820   -2.1250    2.5200 c3        1 MOL      0.024355
    104 C33        -4.8970   -1.5020    2.4710 c         1 MOL      0.457068
    105 O16        -5.6700   -1.6790    3.4520 o         1 MOL     -0.520279
    106 C34        -2.5840   -1.1740    3.3400 c3        1 MOL     -0.134845
    107 C35        -1.1750   -1.8010    3.5190 c         1 MOL      0.677593
    108 O17        -0.3170   -1.7390    2.6330 o         1 MOL     -0.667976
    109 O18        -0.9280   -2.4820    4.5360 o         1 MOL     -0.667976
    110 H47        -2.7680   -1.7090    0.5000 hn        1 MOL     -0.056831
    111 H48        -3.5440   -3.0510    3.0810 h1        1 MOL      0.109254
    112 H49        -2.9720   -0.9940    4.3420 hc        1 MOL      0.024029
    113 H50        -2.5820   -0.2710    2.7360 hc        1 MOL      0.024029
    114 N11        -5.3520   -0.9830    1.2900 n         1 MOL     -0.510699
    115 C36        -6.4840   -0.0530    1.3120 c3        1 MOL      0.532330
    116 C37        -6.2900    1.2990    0.5000 c         1 MOL      0.187299
    117 O19        -6.9520    1.4560   -0.5090 o         1 MOL     -0.429196
    118 C38        -7.8860   -0.7140    1.0410 c3        1 MOL     -0.350170
    119 C39        -9.1770    0.0200    0.8230 ca        1 MOL      0.210655
    120 C40        -9.5800    0.9650    1.7400 ca        1 MOL     -0.179814
    121 C41       -10.0260   -0.3160   -0.2380 ca        1 MOL     -0.179814
    122 C42       -10.7370    1.7090    1.5920 ca        1 MOL     -0.113587
    123 C43       -11.3070    0.2910   -0.3630 ca        1 MOL     -0.113587
    124 C44       -11.6240    1.3010    0.5340 ca        1 MOL     -0.152015
    125 H51        -4.6150   -0.8640    0.6170 hn        1 MOL      0.273458
    126 H52        -6.6730    0.2680    2.3350 h1        1 MOL     -0.032342
    127 H53        -7.9790   -1.4970    1.7890 hc        1 MOL      0.084533
    128 H54        -7.7920   -1.1630    0.0460 hc        1 MOL      0.084533
    129 H55        -8.9440    1.2280    2.5660 ha        1 MOL      0.119729
    130 H56        -9.7990   -1.0520   -0.9930 ha        1 MOL      0.119729
    131 H57       -10.9370    2.5970    2.1850 ha        1 MOL      0.113302
    132 H58       -11.9980   -0.0440   -1.1160 ha        1 MOL      0.113302
    133 H59       -12.5520    1.8580    0.5380 ha        1 MOL      0.097215
    134 N12        -5.1780    2.0890    0.7510 n         1 MOL     -0.051698
    135 C45        -4.8380    3.3600    0.0680 c3        1 MOL     -0.105620
    136 C46        -4.5370    3.1310   -1.4480 c         1 MOL      0.233014
    137 O20        -4.6710    4.1520   -2.1630 o         1 MOL     -0.481998
    138 C47        -3.6030    3.8490    0.6880 c3        1 MOL      0.139951
    139 C48        -3.6360    3.1790    2.0500 c3        1 MOL     -0.192873
    140 C49        -4.2600    1.8560    1.8150 c3        1 MOL     -0.101157
    141 H60        -5.6920    4.0200    0.2160 h1        1 MOL      0.123621
    142 H61        -2.7300    3.4960    0.1520 hc        1 MOL      0.032903
    143 H62        -3.5310    4.9350    0.7140 hc        1 MOL      0.032903
    144 H63        -2.6000    3.0860    2.4160 hc        1 MOL      0.054156
    145 H64        -4.2890    3.7270    2.7230 hc        1 MOL      0.054156
    146 H65        -3.4580    1.2240    1.4530 h1        1 MOL      0.105144
    147 H66        -4.7830    1.4640    2.6860 h1        1 MOL      0.105144
    148 N13        -4.1940    1.9490   -1.9470 n         1 MOL     -0.014318
    149 C50        -4.0590    1.7510   -3.3940 c3        1 MOL     -0.180223
    150 C51        -5.3330    1.9250   -4.0880 c         1 MOL      0.527029
    151 O21        -5.4970    2.7090   -4.9950 o         1 MOL     -0.532871
    152 C52        -3.3640    0.3760   -3.5960 c3        1 MOL      0.062850
    153 C53        -2.0130    0.3180   -2.8750 c3        1 MOL     -0.027516
    154 C54        -1.9440   -0.1270   -1.3870 c         1 MOL      0.702445
    155 O22        -0.8460   -0.3790   -0.8560 o         1 MOL     -0.745470
    156 O23        -3.0030   -0.2820   -0.7130 o         1 MOL     -0.745470
    157 H67        -4.1680    1.1720   -1.3080 hn        1 MOL      0.203381
    158 H68        -3.4630    2.5120   -3.8900 h1        1 MOL      0.101025
    159 H69        -3.1910    0.1980   -4.6520 hc        1 MOL     -0.020483
    160 H70        -4.0920   -0.3880   -3.3100 hc        1 MOL     -0.020483
    161 H71        -1.6550    1.3500   -2.8840 hc        1 MOL      0.021133
    162 H72        -1.3210   -0.2670   -3.4720 hc        1 MOL      0.021133
    163 N14        -6.3490    1.2080   -3.6270 n         1 MOL     -0.213759
    164 C55        -7.7160    1.3500   -4.1820 c3        1 MOL     -0.468996
    165 H73        -7.6970    1.1430   -5.2520 h1        1 MOL      0.159642
    166 H74        -8.3850    0.6450   -3.6880 h1        1 MOL      0.159642
    167 H75        -8.0730    2.3670   -4.0160 h1        1 MOL      0.159642
    168 H76        -6.1990    0.4910   -2.9340 hn        1 MOL      0.252679
    169 Ca1         0.9920   -0.8370    0.7630 Ca        1 MOL      1.789627
    170 O24         1.3510    1.8540   -1.0070 oh        1 MOL     -0.855602
    171 H77         0.8500    2.2230   -1.7290 ho        1 MOL      0.407923
    172 H78         1.8280    2.5980   -0.6430 ho        1 MOL      0.407923
    173 O25         2.5230   -1.4560   -1.2770 oh        1 MOL     -0.855602
    174 H79         3.4390   -1.3930   -1.5340 ho        1 MOL      0.407923
    175 H80         2.1600   -2.1340   -1.8520 ho        1 MOL      0.407923
    176 O26         0.3420    1.3070    2.2290 oh        1 MOL     -0.855602
    177 H81         0.0540    2.2160    2.1230 ho        1 MOL      0.407923
    178 H82         0.0030    1.0450    3.0900 ho        1 MOL      0.407923
    179 O27         2.3760   -2.0220    2.5890 oh        1 MOL     -0.855602
    180 H83         1.7990   -2.2620    3.3230 ho        1 MOL      0.407923
    181 H84         3.1430   -2.5790    2.6980 ho        1 MOL      0.407923
@<TRIPOS>BOND
     1    1    2 1   
     2    1    4 1   
     3    1    5 1   
     4    1    6 1   
     5    2    3 2   
     6    2    7 1   
     7    7    8 1   
     8    7   15 1   
     9    8    9 1   
    10    8   11 1   
    11    8   16 1   
    12    9   10 2   
    13    9   19 1   
    14   11   12 1   
    15   11   17 1   
    16   11   18 1   
    17   12   13 1   
    18   12   14 1   
    19   19   20 1   
    20   19   24 1   
    21   20   21 1   
    22   20   23 1   
    23   20   25 1   
    24   21   22 2   
    25   21   29 1   
    26   23   26 1   
    27   23   27 1   
    28   23   28 1   
    29   29   30 1   
    30   29   37 1   
    31   30   31 1   
    32   30   33 1   
    33   30   38 1   
    34   31   32 2   
    35   31   41 1   
    36   33   34 1   
    37   33   39 1   
    38   33   40 1   
    39   34   35 1   
    40   34   36 1   
    41   41   42 1   
    42   41   45 1   
    43   42   43 1   
    44   42   46 1   
    45   42   47 1   
    46   43   44 2   
    47   43   48 1   
    48   48   49 1   
    49   48   56 1   
    50   49   50 1   
    51   49   52 1   
    52   49   57 1   
    53   50   51 2   
    54   50   62 1   
    55   52   53 1   
    56   52   58 1   
    57   52   59 1   
    58   53   54 1   
    59   53   55 2   
    60   54   60 1   
    61   54   61 1   
    62   62   63 1   
    63   62   66 1   
    64   63   64 1   
    65   63   67 1   
    66   63   68 1   
    67   64   65 2   
    68   64   69 1   
    69   69   70 1   
    70   69   76 1   
    71   70   71 1   
    72   70   73 1   
    73   70   77 1   
    74   71   72 2   
    75   71   83 1   
    76   73   74 1   
    77   73   75 1   
    78   73   78 1   
    79   74   80 1   
    80   74   81 1   
    81   74   82 1   
    82   75   79 1   
    83   83   84 1   
    84   83   91 1   
    85   84   85 1   
    86   84   87 1   
    87   84   92 1   
    88   85   86 2   
    89   85  102 1   
    90   87   88 1   
    91   87   89 1   
    92   87   93 1   
    93   88   90 1   
    94   88   94 1   
    95   88   95 1   
    96   89   96 1   
    97   89   97 1   
    98   89   98 1   
    99   90   99 1   
   100   90  100 1   
   101   90  101 1   
   102  102  103 1   
   103  102  110 1   
   104  103  104 1   
   105  103  106 1   
   106  103  111 1   
   107  104  105 2   
   108  104  114 1   
   109  106  107 1   
   110  106  112 1   
   111  106  113 1   
   112  107  108 1   
   113  107  109 1   
   114  114  115 1   
   115  114  125 1   
   116  115  116 1   
   117  115  118 1   
   118  115  126 1   
   119  116  117 2   
   120  116  134 1   
   121  118  119 1   
   122  118  127 1   
   123  118  128 1   
   124  119  120 ar  
   125  119  121 ar  
   126  120  122 ar  
   127  120  129 1   
   128  121  123 ar  
   129  121  130 1   
   130  122  124 ar  
   131  122  131 1   
   132  123  124 ar  
   133  123  132 1   
   134  124  133 1   
   135  134  135 1   
   136  134  140 1   
   137  135  136 1   
   138  135  138 1   
   139  135  141 1   
   140  136  137 2   
   141  136  148 1   
   142  138  139 1   
   143  138  142 1   
   144  138  143 1   
   145  139  140 1   
   146  139  144 1   
   147  139  145 1   
   148  140  146 1   
   149  140  147 1   
   150  148  149 1   
   151  148  157 1   
   152  149  150 1   
   153  149  152 1   
   154  149  158 1   
   155  150  151 2   
   156  150  163 1   
   157  152  153 1   
   158  152  159 1   
   159  152  160 1   
   160  153  154 1   
   161  153  161 1   
   162  153  162 1   
   163  154  155 1   
   164  154  156 1   
   165  163  164 1   
   166  163  168 1   
   167  164  165 1   
   168  164  166 1   
   169  164  167 1   
   170  170  171 1   
   171  170  172 1   
   172  173  174 1   
   173  173  175 1   
   174  176  177 1   
   175  176  178 1   
   176  179  180 1   
   177  179  181 1   
@<TRIPOS>SUBSTRUCTURE
     1 MOL         1 TEMP              0 ****  ****    0 ROOT
