@<TRIPOS>MOLECULE
MOL
  181   177     1     0     0
SMALL
resp


@<TRIPOS>ATOM
      1 C1          7.4160    8.5600   -1.1010 c3        1 MOL     -0.370224
      2 C2          7.1800    7.4480   -0.1140 c         1 MOL      0.601607
      3 O1          7.6130    7.5980    1.0530 o         1 MOL     -0.605615
      4 H1          6.5740    9.2520   -1.0760 hc        1 MOL      0.101944
      5 H2          8.3310    9.0920   -0.8370 hc        1 MOL      0.101944
      6 H3          7.5140    8.1420   -2.1030 hc        1 MOL      0.101944
      7 N1          6.6240    6.2800   -0.4270 n         1 MOL     -0.125308
      8 C3          6.1730    5.7470   -1.7210 c3        1 MOL     -0.481501
      9 C4          6.1620    4.2270   -1.6430 c         1 MOL      0.604938
     10 O2          6.1610    3.6030   -0.5750 o         1 MOL     -0.374185
     11 C5          4.8060    6.2110   -2.1510 c3        1 MOL      0.183871
     12 C6          3.7310    6.2020   -1.0750 c         1 MOL      0.484789
     13 O3          2.8010    7.0080   -1.2480 o         1 MOL     -0.635123
     14 O4          3.7740    5.3790   -0.1160 o         1 MOL     -0.635123
     15 H4          6.5720    5.6810    0.3810 hn        1 MOL      0.107647
     16 H5          6.8750    5.9840   -2.5200 h1        1 MOL      0.161929
     17 H6          4.5130    5.5380   -2.9670 hc        1 MOL     -0.004134
     18 H7          4.8230    7.1910   -2.6320 hc        1 MOL     -0.004134
     19 N2          6.1900    3.5400   -2.7970 n         1 MOL     -0.535532
     20 C7          6.1130    2.0640   -3.0000 c3        1 MOL      0.218130
     21 C8          7.1580    1.2770   -2.1160 c         1 MOL      0.675015
     22 O5          8.3320    1.6700   -2.0180 o         1 MOL     -0.541817
     23 C9          6.3580    1.8720   -4.4100 c3        1 MOL     -0.395355
     24 H8          6.2950    4.0430   -3.6700 hn        1 MOL      0.294989
     25 H9          5.1150    1.6740   -2.7660 h1        1 MOL      0.019499
     26 H10         5.4630    2.1730   -4.9480 hc        1 MOL      0.112112
     27 H11         7.3220    2.2820   -4.7070 hc        1 MOL      0.112112
     28 H12         6.4650    0.8230   -4.6740 hc        1 MOL      0.112112
     29 N3          6.6440    0.2220   -1.4450 n         1 MOL     -0.770203
     30 C10         7.2840   -0.4980   -0.4250 c3        1 MOL      0.101434
     31 C11         8.0310   -1.8240   -0.8440 c         1 MOL      0.626064
     32 O6          7.6230   -2.6540   -1.6500 o         1 MOL     -0.525002
     33 C12         6.3680   -0.7430    0.7270 c3        1 MOL      0.025811
     34 C13         5.7420    0.5840    1.2640 c         1 MOL      0.475000
     35 O7          4.5240    0.7490    1.1700 o         1 MOL     -0.654967
     36 O8          6.4470    1.4690    1.8200 o         1 MOL     -0.654967
     37 H13         5.7460   -0.0880   -1.7710 hn        1 MOL      0.358850
     38 H14         8.1220    0.1460   -0.1260 h1        1 MOL      0.046849
     39 H15         6.9980   -1.2370    1.4690 hc        1 MOL      0.002105
     40 H16         5.6130   -1.4480    0.3990 hc        1 MOL      0.002105
     41 N4          9.2060   -2.0210   -0.2560 n         1 MOL     -0.433336
     42 C14        10.0510   -3.2470   -0.3370 c3        1 MOL     -0.110451
     43 C15         9.4630   -4.5190    0.2620 c         1 MOL      0.522637
     44 O9         10.1420   -5.5630    0.3740 o         1 MOL     -0.543666
     45 H17         9.5260   -1.2640    0.3240 hn        1 MOL      0.308392
     46 H18        10.9860   -3.0910    0.1920 h1        1 MOL      0.103845
     47 H19        10.2950   -3.4420   -1.3860 h1        1 MOL      0.103845
     48 N5          8.1810   -4.4250    0.7450 n         1 MOL     -0.203535
     49 C16         7.4490   -5.3560    1.5340 c3        1 MOL      0.032564
     50 C17         5.9260   -5.4400    1.1720 c         1 MOL      0.465954
     51 O10         5.1360   -6.0230    1.8710 o         1 MOL     -0.492634
     52 C18         7.6980   -5.0250    3.0230 c3        1 MOL     -0.364787
     53 C19         7.4270   -3.5450    3.4150 c         1 MOL      0.656140
     54 N6          6.1660   -3.1980    3.6620 n         1 MOL     -0.775349
     55 O11         8.3640   -2.7260    3.5570 o         1 MOL     -0.569731
     56 H20         7.7100   -3.5480    0.6080 hn        1 MOL      0.103915
     57 H21         7.8500   -6.3200    1.2310 h1        1 MOL      0.098108
     58 H22         8.7760   -5.1510    3.1790 hc        1 MOL      0.123992
     59 H23         7.0510   -5.6230    3.6570 hc        1 MOL      0.123992
     60 H24         5.3290   -3.7590    3.5260 hn        1 MOL      0.370123
     61 H25         6.0160   -2.2390    3.9360 hn        1 MOL      0.370123
     62 N7          5.5790   -4.7510    0.0990 n         1 MOL     -0.340074
     63 C20         4.1500   -4.2740   -0.1580 c3        1 MOL      0.057823
     64 C21         3.1850   -5.3850   -0.5530 c         1 MOL      0.534292
     65 O12         3.5710   -6.5280   -0.5300 o         1 MOL     -0.510925
     66 H26         6.3020   -4.3930   -0.5100 hn        1 MOL      0.194497
     67 H27         4.1370   -3.5340   -0.9560 h1        1 MOL      0.052619
     68 H28         3.7440   -3.6280    0.6310 h1        1 MOL      0.052619
     69 N8          2.0090   -5.0640   -1.1330 n         1 MOL     -0.506477
     70 C22         1.3840   -3.7090   -1.3070 c3        1 MOL     -0.058821
     71 C23        -0.0750   -3.6390   -0.8790 c         1 MOL      0.564514
     72 O13        -0.9190   -4.5080   -1.1330 o         1 MOL     -0.534498
     73 C24         1.4650   -3.4000   -2.7910 c3        1 MOL      0.341141
     74 C25         0.7760   -2.1370   -3.2050 c3        1 MOL     -0.287477
     75 O14         2.7940   -3.2720   -3.1250 oh        1 MOL     -0.622763
     76 H29         1.5380   -5.8390   -1.5750 hn        1 MOL      0.316345
     77 H30         1.8650   -2.8700   -0.8070 h1        1 MOL      0.127247
     78 H31         1.1510   -4.2810   -3.3620 h1        1 MOL      0.015398
     79 H32         2.6240   -3.4410   -4.0550 ho        1 MOL      0.394207
     80 H33        -0.2330   -1.9530   -2.8460 hc        1 MOL      0.078933
     81 H34         1.5280   -1.3800   -2.9710 hc        1 MOL      0.078933
     82 H35         0.7310   -2.2120   -4.3010 hc        1 MOL      0.078933
     83 N9         -0.4140   -2.5850   -0.1160 n         1 MOL     -0.536545
     84 C26        -1.7850   -2.1280    0.1760 c3        1 MOL      0.182017
     85 C27        -2.1720   -1.1160   -0.8620 c         1 MOL      0.469100
     86 O15        -1.4280   -0.2160   -1.1510 o         1 MOL     -0.575134
     87 C28        -2.0730   -1.5870    1.5590 c3        1 MOL     -0.075399
     88 C29        -1.8640   -2.7580    2.5540 c3        1 MOL      0.052117
     89 C30        -3.4340   -0.9570    1.9000 c3        1 MOL     -0.096368
     90 C31        -1.8130   -2.3620    4.0360 c3        1 MOL     -0.145483
     91 H36         0.3350   -1.9140   -0.0030 hn        1 MOL      0.245672
     92 H37        -2.4120   -3.0210    0.1330 h1        1 MOL      0.031988
     93 H38        -1.3390   -0.8130    1.7540 hc        1 MOL      0.063399
     94 H39        -0.9260   -3.2650    2.3250 hc        1 MOL      0.010956
     95 H40        -2.6830   -3.4670    2.4240 hc        1 MOL      0.010956
     96 H41        -3.3340   -0.4710    2.8640 hc        1 MOL      0.047097
     97 H42        -3.7490   -0.2080    1.1790 hc        1 MOL      0.047097
     98 H43        -4.1910   -1.7290    1.9510 hc        1 MOL      0.047097
     99 H44        -1.2120   -3.1200    4.5590 hc        1 MOL      0.020837
    100 H45        -1.2510   -1.4360    4.1660 hc        1 MOL      0.020837
    101 H46        -2.7840   -2.3030    4.5220 hc        1 MOL      0.020837
    102 N10        -3.4060   -1.1390   -1.3860 n         1 MOL     -0.469353
    103 C32        -4.5150   -2.0530   -1.1140 c3        1 MOL      0.678592
    104 C33        -5.8470   -1.2700   -1.0700 c         1 MOL      0.383177
    105 O16        -5.8740   -0.0590   -1.4510 o         1 MOL     -0.489770
    106 C34        -4.4670   -3.1260   -2.1870 c3        1 MOL     -0.432436
    107 C35        -4.3360   -2.5910   -3.6760 c         1 MOL      0.787425
    108 O17        -4.2220   -1.4070   -3.9620 o         1 MOL     -0.719334
    109 O18        -4.2740   -3.3700   -4.6320 o         1 MOL     -0.719334
    110 H47        -3.5870   -0.3730   -2.0200 hn        1 MOL      0.322053
    111 H48        -4.4280   -2.5660   -0.1530 h1        1 MOL     -0.080954
    112 H49        -5.3300   -3.7830   -2.0370 hc        1 MOL      0.035848
    113 H50        -3.5810   -3.6940   -1.9230 hc        1 MOL      0.035848
    114 N11        -6.9430   -1.8710   -0.5960 n         1 MOL     -0.918650
    115 C36        -8.2380   -1.2320   -0.7180 c3        1 MOL      1.071724
    116 C37        -9.1220   -1.7220    0.4640 c         1 MOL      0.045516
    117 O19        -8.9760   -2.8930    0.9480 o         1 MOL     -0.532950
    118 C38        -8.9160   -1.6970   -2.0390 c3        1 MOL     -0.177595
    119 C39       -10.0890   -0.7930   -2.4370 ca        1 MOL      0.135223
    120 C40       -11.4190   -1.1030   -2.0990 ca        1 MOL     -0.241704
    121 C41        -9.8020    0.4380   -3.0050 ca        1 MOL     -0.241704
    122 C42       -12.4130   -0.2130   -2.3310 ca        1 MOL     -0.000875
    123 C43       -10.8210    1.3800   -3.2630 ca        1 MOL     -0.000875
    124 C44       -12.1110    1.0440   -2.8390 ca        1 MOL     -0.278707
    125 H51        -6.8500   -2.7260   -0.0660 hn        1 MOL      0.356661
    126 H52        -8.0940   -0.1540   -0.6320 h1        1 MOL     -0.123427
    127 H53        -9.3150   -2.7110   -2.0570 hc        1 MOL      0.030795
    128 H54        -8.1520   -1.6210   -2.8090 hc        1 MOL      0.030795
    129 H55       -11.6030   -2.0650   -1.6560 ha        1 MOL      0.132767
    130 H56        -8.7600    0.6060   -3.2470 ha        1 MOL      0.132767
    131 H57       -13.4360   -0.3600   -2.0360 ha        1 MOL      0.096195
    132 H58       -10.7170    2.3530   -3.7230 ha        1 MOL      0.096195
    133 H59       -12.8080    1.8740   -2.8100 ha        1 MOL      0.131589
    134 N12       -10.0350   -0.9620    1.0410 n         1 MOL     -0.023532
    135 C45       -10.4330    0.4320    0.8170 c3        1 MOL     -0.053123
    136 C46        -9.5410    1.4820    1.4860 c         1 MOL      0.524018
    137 O20        -9.9300    2.6110    1.5260 o         1 MOL     -0.543498
    138 C47       -11.8860    0.5630    1.3180 c3        1 MOL      0.259299
    139 C48       -11.7750   -0.2600    2.5970 c3        1 MOL     -0.186221
    140 C49       -10.8320   -1.3520    2.2760 c3        1 MOL     -0.229406
    141 H60       -10.3950    0.6600   -0.2470 h1        1 MOL      0.058819
    142 H61       -12.2070    1.5770    1.5530 hc        1 MOL     -0.066344
    143 H62       -12.5280    0.1790    0.5150 hc        1 MOL     -0.066344
    144 H63       -11.2670    0.4720    3.2320 hc        1 MOL      0.065666
    145 H64       -12.6960   -0.7100    2.9930 hc        1 MOL      0.065666
    146 H65       -10.0940   -1.3610    3.0740 h1        1 MOL      0.121527
    147 H66       -11.3540   -2.2850    2.0660 h1        1 MOL      0.121527
    148 N13        -8.4390    1.0080    1.9750 n         1 MOL     -0.450650
    149 C50        -7.3400    1.8920    2.4790 c3        1 MOL      0.003552
    150 C51        -6.3480    1.0150    3.2960 c         1 MOL      0.407355
    151 O21        -6.2210   -0.1850    3.0680 o         1 MOL     -0.564954
    152 C52        -6.5220    2.5370    1.3250 c3        1 MOL      0.166379
    153 C53        -7.1180    3.8320    0.7540 c3        1 MOL     -0.399301
    154 C54        -5.9890    4.5800   -0.0240 c         1 MOL      0.748955
    155 O22        -5.3040    4.0400   -0.9040 o         1 MOL     -0.714512
    156 O23        -5.8420    5.7860    0.2640 o         1 MOL     -0.714512
    157 H67        -8.2450    0.0150    2.0310 hn        1 MOL      0.365328
    158 H68        -7.7020    2.6930    3.1300 h1        1 MOL      0.094058
    159 H69        -6.3320    1.7310    0.6080 hc        1 MOL      0.002969
    160 H70        -5.5210    2.7590    1.6970 hc        1 MOL      0.002969
    161 H71        -7.4540    4.4950    1.5490 hc        1 MOL      0.086947
    162 H72        -7.9370    3.5680    0.0860 hc        1 MOL      0.086947
    163 N14        -5.7530    1.6120    4.3040 n         1 MOL     -0.374912
    164 C55        -5.6800    3.0710    4.6130 c3        1 MOL     -0.083746
    165 H73        -6.3020    3.6230    3.9090 h1        1 MOL      0.068737
    166 H74        -6.0370    3.2460    5.6280 h1        1 MOL      0.068737
    167 H75        -4.6480    3.4090    4.5280 h1        1 MOL      0.068737
    168 H76        -5.0330    1.0210    4.6870 hn        1 MOL      0.286718
    169 Ca1         4.3420    3.3500    1.4580 Ca        1 MOL      1.706475
    170 O24         3.8280    2.5200    3.7970 oh        1 MOL     -0.867100
    171 H77         3.0470    2.0410    4.0810 ho        1 MOL      0.425659
    172 H78         4.3320    2.6520    4.5940 ho        1 MOL      0.425659
    173 O25         3.1800    2.5770   -0.7990 oh        1 MOL     -0.867100
    174 H79         3.3660    2.5120   -1.7410 ho        1 MOL      0.425659
    175 H80         2.3010    2.2450   -0.6960 ho        1 MOL      0.425659
    176 O26         1.5380    3.2130    1.6710 oh        1 MOL     -0.867100
    177 H81         0.9140    2.6560    1.2250 ho        1 MOL      0.425659
    178 H82         1.1610    4.0870    1.6370 ho        1 MOL      0.425659
    179 O27         6.5750    4.7600    2.3550 oh        1 MOL     -0.867100
    180 H83         7.4870    4.5170    2.5160 ho        1 MOL      0.425659
    181 H84         6.3510    5.3540    3.0760 ho        1 MOL      0.425659
@<TRIPOS>BOND
     1    1    2 1   
     2    1    4 1   
     3    1    5 1   
     4    1    6 1   
     5    2    3 2   
     6    2    7 1   
     7    7    8 1   
     8    7   15 1   
     9    8    9 1   
    10    8   11 1   
    11    8   16 1   
    12    9   10 2   
    13    9   19 1   
    14   11   12 1   
    15   11   17 1   
    16   11   18 1   
    17   12   13 1   
    18   12   14 1   
    19   19   20 1   
    20   19   24 1   
    21   20   21 1   
    22   20   23 1   
    23   20   25 1   
    24   21   22 2   
    25   21   29 1   
    26   23   26 1   
    27   23   27 1   
    28   23   28 1   
    29   29   30 1   
    30   29   37 1   
    31   30   31 1   
    32   30   33 1   
    33   30   38 1   
    34   31   32 2   
    35   31   41 1   
    36   33   34 1   
    37   33   39 1   
    38   33   40 1   
    39   34   35 1   
    40   34   36 1   
    41   41   42 1   
    42   41   45 1   
    43   42   43 1   
    44   42   46 1   
    45   42   47 1   
    46   43   44 2   
    47   43   48 1   
    48   48   49 1   
    49   48   56 1   
    50   49   50 1   
    51   49   52 1   
    52   49   57 1   
    53   50   51 2   
    54   50   62 1   
    55   52   53 1   
    56   52   58 1   
    57   52   59 1   
    58   53   54 1   
    59   53   55 2   
    60   54   60 1   
    61   54   61 1   
    62   62   63 1   
    63   62   66 1   
    64   63   64 1   
    65   63   67 1   
    66   63   68 1   
    67   64   65 2   
    68   64   69 1   
    69   69   70 1   
    70   69   76 1   
    71   70   71 1   
    72   70   73 1   
    73   70   77 1   
    74   71   72 2   
    75   71   83 1   
    76   73   74 1   
    77   73   75 1   
    78   73   78 1   
    79   74   80 1   
    80   74   81 1   
    81   74   82 1   
    82   75   79 1   
    83   83   84 1   
    84   83   91 1   
    85   84   85 1   
    86   84   87 1   
    87   84   92 1   
    88   85   86 2   
    89   85  102 1   
    90   87   88 1   
    91   87   89 1   
    92   87   93 1   
    93   88   90 1   
    94   88   94 1   
    95   88   95 1   
    96   89   96 1   
    97   89   97 1   
    98   89   98 1   
    99   90   99 1   
   100   90  100 1   
   101   90  101 1   
   102  102  103 1   
   103  102  110 1   
   104  103  104 1   
   105  103  106 1   
   106  103  111 1   
   107  104  105 2   
   108  104  114 1   
   109  106  107 1   
   110  106  112 1   
   111  106  113 1   
   112  107  108 1   
   113  107  109 1   
   114  114  115 1   
   115  114  125 1   
   116  115  116 1   
   117  115  118 1   
   118  115  126 1   
   119  116  117 2   
   120  116  134 1   
   121  118  119 1   
   122  118  127 1   
   123  118  128 1   
   124  119  120 ar  
   125  119  121 ar  
   126  120  122 ar  
   127  120  129 1   
   128  121  123 ar  
   129  121  130 1   
   130  122  124 ar  
   131  122  131 1   
   132  123  124 ar  
   133  123  132 1   
   134  124  133 1   
   135  134  135 1   
   136  134  140 1   
   137  135  136 1   
   138  135  138 1   
   139  135  141 1   
   140  136  137 2   
   141  136  148 1   
   142  138  139 1   
   143  138  142 1   
   144  138  143 1   
   145  139  140 1   
   146  139  144 1   
   147  139  145 1   
   148  140  146 1   
   149  140  147 1   
   150  148  149 1   
   151  148  157 1   
   152  149  150 1   
   153  149  152 1   
   154  149  158 1   
   155  150  151 2   
   156  150  163 1   
   157  152  153 1   
   158  152  159 1   
   159  152  160 1   
   160  153  154 1   
   161  153  161 1   
   162  153  162 1   
   163  154  155 1   
   164  154  156 1   
   165  163  164 1   
   166  163  168 1   
   167  164  165 1   
   168  164  166 1   
   169  164  167 1   
   170  170  171 1   
   171  170  172 1   
   172  173  174 1   
   173  173  175 1   
   174  176  177 1   
   175  176  178 1   
   176  179  180 1   
   177  179  181 1   
@<TRIPOS>SUBSTRUCTURE
     1 MOL         1 TEMP              0 ****  ****    0 ROOT
