@<TRIPOS>MOLECULE
MOL
  198   191     1     0     0
SMALL
resp


@<TRIPOS>ATOM
      1 C1         -6.2820    4.6250    0.7390 c3        1 MOL     -0.435947
      2 C2         -5.2010    3.6450    0.2780 c         1 MOL      0.741210
      3 O1         -5.6570    2.6180   -0.2430 o         1 MOL     -0.658975
      4 H1         -7.1720    4.4990    0.1220 hc        1 MOL      0.113421
      5 H2         -6.5320    4.4260    1.7820 hc        1 MOL      0.113421
      6 H3         -5.9140    5.6460    0.6410 hc        1 MOL      0.113421
      7 N1         -3.8910    3.7370    0.4350 n         1 MOL     -0.418056
      8 C3         -3.1050    4.7500    1.1370 c3        1 MOL     -0.000488
      9 C4         -2.5700    5.7700    0.1900 c         1 MOL      0.460245
     10 O2         -2.2660    6.8460    0.6380 o         1 MOL     -0.538629
     11 C5         -2.0360    4.1100    2.0250 c3        1 MOL     -0.380299
     12 C6         -2.5210    2.8340    2.6320 c         1 MOL      0.751988
     13 O3         -2.9510    2.8190    3.7920 o         1 MOL     -0.743937
     14 O4         -2.4980    1.7730    2.0260 o         1 MOL     -0.743937
     15 H4         -3.2740    3.0320    0.0590 hn        1 MOL      0.311787
     16 H5         -3.7430    5.2590    1.8550 h1        1 MOL      0.086863
     17 H6         -1.7720    4.6810    2.9230 hc        1 MOL      0.159354
     18 H7         -1.0860    3.9540    1.5110 hc        1 MOL      0.159354
     19 N2         -2.4730    5.4410   -1.1150 n         1 MOL     -0.311095
     20 C7         -1.9940    6.4160   -2.1850 c3        1 MOL     -0.125413
     21 C8         -0.5580    6.9420   -1.9720 c         1 MOL      0.439296
     22 O5         -0.2570    7.9510   -2.5090 o         1 MOL     -0.534142
     23 C9         -2.2050    5.9250   -3.6230 c3        1 MOL      0.202308
     24 C10        -1.6840    4.4810   -3.9330 c3        1 MOL      0.217636
     25 C11        -3.6280    6.1100   -4.0890 c3        1 MOL     -0.331091
     26 C12        -1.2480    4.1820   -5.3180 c3        1 MOL     -0.387265
     27 H8         -2.8330    4.5350   -1.3790 hn        1 MOL      0.152564
     28 H9         -2.5990    7.3140   -2.0560 h1        1 MOL      0.118410
     29 H10        -1.5800    6.6190   -4.1920 hc        1 MOL     -0.005677
     30 H11        -2.4480    3.7590   -3.6510 hc        1 MOL      0.006054
     31 H12        -0.8020    4.2480   -3.3430 hc        1 MOL      0.006054
     32 H13        -3.8720    7.1640   -3.9140 hc        1 MOL      0.061158
     33 H14        -3.7590    5.7860   -5.1220 hc        1 MOL      0.061158
     34 H15        -4.3870    5.5380   -3.5700 hc        1 MOL      0.061158
     35 H16        -0.9620    3.1220   -5.3570 hc        1 MOL      0.080462
     36 H17        -2.0180    4.4140   -6.0390 hc        1 MOL      0.080462
     37 H18        -0.3240    4.7060   -5.5580 hc        1 MOL      0.080462
     38 N3          0.2840    6.1410   -1.3000 n         1 MOL     -0.090733
     39 C13         1.6850    6.3760   -1.0420 c3        1 MOL     -0.134013
     40 C14         2.1140    5.6500    0.2700 c         1 MOL      0.539852
     41 O6          1.3740    5.4780    1.2220 o         1 MOL     -0.563918
     42 C15         2.3010    5.7920   -2.3540 c3        1 MOL     -0.393712
     43 C16         3.8230    6.1190   -2.5030 c         1 MOL      0.700257
     44 O7          4.7330    5.2810   -2.1570 o         1 MOL     -0.698125
     45 O8          4.2190    7.2530   -2.9030 o         1 MOL     -0.698125
     46 H19        -0.2040    5.4290   -0.7740 hn        1 MOL      0.159631
     47 H20         1.9380    7.4190   -0.8760 h1        1 MOL      0.143243
     48 H21         1.6920    6.1520   -3.1820 hc        1 MOL      0.101398
     49 H22         2.1700    4.7170   -2.4290 hc        1 MOL      0.101398
     50 N4          3.3790    5.1860    0.4060 n         1 MOL     -0.339586
     51 C17         4.0340    4.7030    1.6020 c3        1 MOL     -0.092747
     52 C18         4.6610    3.2710    1.2230 c         1 MOL      0.693183
     53 O9          4.0640    2.4270    0.5790 o         1 MOL     -0.612024
     54 H23         4.0140    5.3440   -0.3570 hn        1 MOL      0.253169
     55 H24         3.4100    4.6280    2.4880 h1        1 MOL      0.078354
     56 H25         4.8020    5.4490    1.8310 h1        1 MOL      0.078354
     57 N5          5.8270    2.9600    1.8010 n         1 MOL     -0.691843
     58 C19         6.5360    1.6760    1.6010 c3        1 MOL      0.438673
     59 C20         7.4200    1.7220    0.3710 c         1 MOL      0.568027
     60 O10         8.0580    2.7410    0.1100 o         1 MOL     -0.566319
     61 C21         7.4070    1.2740    2.7690 c3        1 MOL     -0.381071
     62 C22         6.8090    1.4880    4.1770 c         1 MOL      0.759530
     63 O11         5.6930    1.0100    4.4870 o         1 MOL     -0.740716
     64 O12         7.5380    2.0980    5.0170 o         1 MOL     -0.740716
     65 H26         6.3550    3.7170    2.2000 hn        1 MOL      0.325092
     66 H27         5.8050    0.8780    1.4720 h1        1 MOL     -0.002721
     67 H28         8.3430    1.8200    2.6750 hc        1 MOL      0.043387
     68 H29         7.5820    0.1930    2.7550 hc        1 MOL      0.043387
     69 N6          7.6260    0.6410   -0.3700 n         1 MOL     -0.602628
     70 C23         6.8420   -0.5480   -0.2710 c3        1 MOL      0.164939
     71 C24         7.6530   -1.5190   -1.1150 c         1 MOL      0.548669
     72 O13         8.3380   -1.2430   -2.0480 o         1 MOL     -0.539082
     73 H30         8.3880    0.7010   -1.0270 hn        1 MOL      0.306256
     74 H31         5.8090   -0.4440   -0.6080 h1        1 MOL      0.057996
     75 H32         6.8250   -0.8460    0.7710 h1        1 MOL      0.057996
     76 N7          7.3930   -2.8300   -1.0490 n         1 MOL     -0.477997
     77 C25         6.7150   -3.5620   -0.0230 c3        1 MOL      0.130228
     78 C26         5.3120   -3.0920    0.3060 c         1 MOL      0.331198
     79 O14         5.0080   -2.7410    1.4760 o         1 MOL     -0.475145
     80 C27         7.6430   -3.7560    1.2360 c3        1 MOL     -0.141488
     81 C28         8.9880   -4.4810    0.9610 c3        1 MOL     -0.074723
     82 C29         8.9500   -5.8600    0.3730 c         1 MOL      0.684590
     83 N8         10.0570   -6.4010    0.0180 n         1 MOL     -0.785613
     84 O15         7.9110   -6.4750    0.1900 o         1 MOL     -0.581213
     85 H33         7.8640   -3.4160   -1.7280 hn        1 MOL      0.282023
     86 H34         6.6720   -4.6070   -0.3260 h1        1 MOL      0.061886
     87 H35         7.0950   -4.3380    1.9790 hc        1 MOL      0.067736
     88 H36         7.8110   -2.7480    1.6210 hc        1 MOL      0.067736
     89 H37         9.4890   -4.6780    1.9020 hc        1 MOL      0.026719
     90 H38         9.6980   -3.9030    0.3770 hc        1 MOL      0.026719
     91 H39        10.9700   -6.0650    0.2960 hn        1 MOL      0.350129
     92 H40         9.9630   -7.3480   -0.3200 hn        1 MOL      0.350129
     93 N9          4.3910   -2.9520   -0.6830 n         1 MOL     -0.343984
     94 C30         2.9980   -2.4620   -0.3500 c3        1 MOL     -0.043650
     95 C31         2.4830   -1.6900   -1.4880 c         1 MOL      0.460978
     96 O16         2.7130   -2.0440   -2.6080 o         1 MOL     -0.537370
     97 C32         2.0110   -3.6050   -0.0420 c3        1 MOL     -0.045357
     98 C33         1.0540   -3.1390    1.1030 c3        1 MOL     -0.418333
     99 C34         2.5510   -4.9070    0.5360 c3        1 MOL     -0.418333
    100 H41         4.6500   -3.1810   -1.6270 hn        1 MOL      0.238763
    101 H42         3.1610   -1.8040    0.5170 h1        1 MOL      0.136199
    102 H43         1.4750   -3.9000   -0.9410 hc        1 MOL      0.219011
    103 H44         0.3370   -3.9300    1.3310 hc        1 MOL      0.129312
    104 H45         1.5790   -2.8720    2.0140 hc        1 MOL      0.129312
    105 H46         0.3690   -2.3900    0.7210 hc        1 MOL      0.129312
    106 H47         3.0050   -4.6580    1.4970 hc        1 MOL      0.129312
    107 H48         1.7180   -5.5440    0.8200 hc        1 MOL      0.129312
    108 H49         3.2180   -5.3740   -0.1850 hc        1 MOL      0.129312
    109 N10         1.7860   -0.5830   -1.2680 n         1 MOL     -0.209168
    110 C35         1.1110    0.2610   -2.2580 c3        1 MOL      0.034963
    111 C36        -0.1960   -0.2740   -2.7580 c         1 MOL      0.378663
    112 O17        -0.8470    0.3010   -3.6480 o         1 MOL     -0.535614
    113 C37         0.7750    1.5600   -1.5850 c3        1 MOL     -0.285765
    114 C38        -0.3880    1.6140   -0.6380 c         1 MOL      0.690563
    115 N11        -0.3300    0.9050    0.4790 n         1 MOL     -0.772034
    116 O18        -1.3740    2.3450   -0.8050 o         1 MOL     -0.573562
    117 H50         1.5920   -0.3340   -0.3030 hn        1 MOL      0.148988
    118 H51         1.7560    0.4870   -3.1150 h1        1 MOL      0.136334
    119 H52         0.6110    2.3030   -2.3620 hc        1 MOL      0.106893
    120 H53         1.6920    1.7700   -1.0200 hc        1 MOL      0.106893
    121 H54         0.5760    0.5350    0.7380 hn        1 MOL      0.365026
    122 H55        -1.0190    0.9930    1.2060 hn        1 MOL      0.365026
    123 N12        -0.6940   -1.4070   -2.2830 n         1 MOL     -0.132268
    124 C39        -1.9720   -2.0570   -2.6500 c3        1 MOL      0.196488
    125 C40        -2.6770   -2.8350   -1.5000 c         1 MOL      0.291658
    126 O19        -2.0450   -3.1360   -0.5080 o         1 MOL     -0.430456
    127 C41        -1.8330   -2.9650   -3.8650 c3        1 MOL     -0.069149
    128 C42        -0.8420   -4.0430   -3.6440 ca        1 MOL      0.076622
    129 C43        -1.4090   -5.2930   -3.2550 ca        1 MOL     -0.181237
    130 C44         0.5500   -3.9750   -3.8170 ca        1 MOL     -0.181237
    131 C45        -0.6130   -6.3950   -2.9020 ca        1 MOL     -0.247912
    132 C46         1.3750   -5.0870   -3.4140 ca        1 MOL     -0.247912
    133 C47         0.7880   -6.2810   -2.9430 ca        1 MOL      0.277335
    134 O20         1.5620   -7.2750   -2.5150 oh        1 MOL     -0.435944
    135 H56        -0.1230   -1.9230   -1.6280 hn        1 MOL      0.037912
    136 H57        -2.6710   -1.2640   -2.9290 h1        1 MOL      0.004316
    137 H58        -1.5050   -2.3670   -4.7080 hc        1 MOL      0.032921
    138 H59        -2.8380   -3.3190   -4.1020 hc        1 MOL      0.032921
    139 H60        -2.4790   -5.4410   -3.2590 ha        1 MOL      0.131533
    140 H61         0.9520   -3.0550   -4.2020 ha        1 MOL      0.131533
    141 H62        -1.0670   -7.3030   -2.5280 ha        1 MOL      0.162411
    142 H63         2.4490   -5.0300   -3.5230 ha        1 MOL      0.162411
    143 H64         2.4600   -6.9530   -2.5780 ho        1 MOL      0.316217
    144 N13        -3.9560   -3.1960   -1.6730 n         1 MOL     -0.421959
    145 C48        -4.8250   -3.9410   -0.6750 c3        1 MOL      0.158901
    146 C49        -6.1700   -3.2330   -0.5810 c         1 MOL      0.279603
    147 O21        -7.0870   -3.5640   -1.2790 o         1 MOL     -0.431225
    148 C50        -4.8790   -5.4830   -1.0210 c3        1 MOL     -0.063861
    149 C51        -5.3790   -6.3040    0.1450 c3        1 MOL     -0.279083
    150 C52        -5.5330   -7.8210   -0.1270 c         1 MOL      0.697253
    151 O22        -4.6660   -8.4390   -0.8450 o         1 MOL     -0.733381
    152 O23        -6.6130   -8.3400    0.3590 o         1 MOL     -0.733381
    153 H65        -4.3770   -2.7420   -2.4730 hn        1 MOL      0.254948
    154 H66        -4.3460   -3.7890    0.3000 h1        1 MOL      0.017338
    155 H67        -3.8390   -5.7950   -1.0750 hc        1 MOL      0.067990
    156 H68        -5.4160   -5.5550   -1.9750 hc        1 MOL      0.067990
    157 H69        -6.3480   -5.8520    0.3670 hc        1 MOL      0.066850
    158 H70        -4.6150   -6.1730    0.9100 hc        1 MOL      0.066850
    159 N14        -6.1920   -2.1770    0.2660 n         1 MOL     -0.059152
    160 C53        -7.1240   -1.1060    0.0910 c3        1 MOL     -0.062658
    161 C54        -7.2020   -0.5170   -1.3330 c         1 MOL      0.373387
    162 O24        -8.2710   -0.6080   -1.9640 o         1 MOL     -0.510337
    163 C55        -6.8420    0.0340    1.1500 c3        1 MOL      0.191215
    164 C56        -7.1110   -0.3890    2.6250 c3        1 MOL     -0.336463
    165 C57        -6.0360   -1.3210    3.1450 c         1 MOL      0.527725
    166 O25        -4.8080   -1.0600    2.9920 o         1 MOL     -0.658819
    167 O26        -6.4200   -2.3650    3.7350 o         1 MOL     -0.658819
    168 H71        -5.3020   -1.9990    0.6980 hn        1 MOL      0.134300
    169 H72        -8.1030   -1.5420    0.2530 h1        1 MOL      0.071406
    170 H73        -7.4830    0.8700    0.8630 hc        1 MOL     -0.029378
    171 H74        -5.7840    0.2160    0.9770 hc        1 MOL     -0.029378
    172 H75        -8.1580   -0.6840    2.6740 hc        1 MOL      0.089641
    173 H76        -7.0200    0.4750    3.2820 hc        1 MOL      0.089641
    174 N15        -6.0060   -0.1880   -1.9500 n         1 MOL     -0.052462
    175 C58        -5.9880    0.3140   -3.3570 c3        1 MOL     -0.451385
    176 H77        -6.6010    1.2130   -3.4290 h1        1 MOL      0.150203
    177 H78        -4.9630    0.5500   -3.6450 h1        1 MOL      0.150203
    178 H79        -6.3860   -0.4510   -4.0210 h1        1 MOL      0.150203
    179 H80        -5.1160   -0.1570   -1.4720 hn        1 MOL      0.214067
    180 Ca1        -2.8150    0.0180    3.9640 Ca        1 MOL      1.737532
    181 O27        -3.8550   -1.8790    5.7630 oh        1 MOL     -0.816658
    182 H81        -3.4080   -2.2180    6.5290 ho        1 MOL      0.405363
    183 H82        -4.7200   -2.3080    5.7770 ho        1 MOL      0.405363
    184 O28        -1.1460   -2.0890    4.4610 oh        1 MOL     -0.816658
    185 H83        -0.9850   -2.9950    4.2010 ho        1 MOL      0.405363
    186 H84        -0.5410   -1.9320    5.1860 ho        1 MOL      0.405363
    187 O29        -5.2760    0.8000    5.5300 oh        1 MOL     -0.816658
    188 H85        -5.5780    0.2520    6.2580 ho        1 MOL      0.405363
    189 H86        -6.0590    1.2550    5.2250 ho        1 MOL      0.405363
    190 O30        -0.0140    0.6550    3.6500 oh        1 MOL     -0.816658
    191 H87         0.4190    0.4270    4.4810 ho        1 MOL      0.405363
    192 H88         0.7000    0.9000    3.0760 ho        1 MOL      0.405363
    193 O31        -1.6790    0.9200    6.2480 oh        1 MOL     -0.816658
    194 H89        -1.5230    0.4980    7.0920 ho        1 MOL      0.405363
    195 H90        -1.2230    1.7620    6.3040 ho        1 MOL      0.405363
    196 O32        -2.3180   -1.2170    1.5810 oh        1 MOL     -0.816658
    197 H91        -3.0840   -0.7760    1.1950 ho        1 MOL      0.405363
    198 H92        -2.1070   -1.9070    0.9540 ho        1 MOL      0.405363
@<TRIPOS>BOND
     1    1    2 1   
     2    1    4 1   
     3    1    5 1   
     4    1    6 1   
     5    2    3 2   
     6    2    7 1   
     7    7    8 1   
     8    7   15 1   
     9    8    9 1   
    10    8   11 1   
    11    8   16 1   
    12    9   10 2   
    13    9   19 1   
    14   11   12 1   
    15   11   17 1   
    16   11   18 1   
    17   12   13 1   
    18   12   14 1   
    19   19   20 1   
    20   19   27 1   
    21   20   21 1   
    22   20   23 1   
    23   20   28 1   
    24   21   22 2   
    25   21   38 1   
    26   23   24 1   
    27   23   25 1   
    28   23   29 1   
    29   24   26 1   
    30   24   30 1   
    31   24   31 1   
    32   25   32 1   
    33   25   33 1   
    34   25   34 1   
    35   26   35 1   
    36   26   36 1   
    37   26   37 1   
    38   38   39 1   
    39   38   46 1   
    40   39   40 1   
    41   39   42 1   
    42   39   47 1   
    43   40   41 2   
    44   40   50 1   
    45   42   43 1   
    46   42   48 1   
    47   42   49 1   
    48   43   44 1   
    49   43   45 1   
    50   50   51 1   
    51   50   54 1   
    52   51   52 1   
    53   51   55 1   
    54   51   56 1   
    55   52   53 2   
    56   52   57 1   
    57   57   58 1   
    58   57   65 1   
    59   58   59 1   
    60   58   61 1   
    61   58   66 1   
    62   59   60 2   
    63   59   69 1   
    64   61   62 1   
    65   61   67 1   
    66   61   68 1   
    67   62   63 1   
    68   62   64 1   
    69   69   70 1   
    70   69   73 1   
    71   70   71 1   
    72   70   74 1   
    73   70   75 1   
    74   71   72 2   
    75   71   76 1   
    76   76   77 1   
    77   76   85 1   
    78   77   78 1   
    79   77   80 1   
    80   77   86 1   
    81   78   79 2   
    82   78   93 1   
    83   80   81 1   
    84   80   87 1   
    85   80   88 1   
    86   81   82 1   
    87   81   89 1   
    88   81   90 1   
    89   82   83 1   
    90   82   84 2   
    91   83   91 1   
    92   83   92 1   
    93   93   94 1   
    94   93  100 1   
    95   94   95 1   
    96   94   97 1   
    97   94  101 1   
    98   95   96 2   
    99   95  109 1   
   100   97   98 1   
   101   97   99 1   
   102   97  102 1   
   103   98  103 1   
   104   98  104 1   
   105   98  105 1   
   106   99  106 1   
   107   99  107 1   
   108   99  108 1   
   109  109  110 1   
   110  109  117 1   
   111  110  111 1   
   112  110  113 1   
   113  110  118 1   
   114  111  112 2   
   115  111  123 1   
   116  113  114 1   
   117  113  119 1   
   118  113  120 1   
   119  114  115 1   
   120  114  116 2   
   121  115  121 1   
   122  115  122 1   
   123  123  124 1   
   124  123  135 1   
   125  124  125 1   
   126  124  127 1   
   127  124  136 1   
   128  125  126 2   
   129  125  144 1   
   130  127  128 1   
   131  127  137 1   
   132  127  138 1   
   133  128  129 ar  
   134  128  130 ar  
   135  129  131 ar  
   136  129  139 1   
   137  130  132 ar  
   138  130  140 1   
   139  131  133 ar  
   140  131  141 1   
   141  132  133 ar  
   142  132  142 1   
   143  133  134 1   
   144  134  143 1   
   145  144  145 1   
   146  144  153 1   
   147  145  146 1   
   148  145  148 1   
   149  145  154 1   
   150  146  147 2   
   151  146  159 1   
   152  148  149 1   
   153  148  155 1   
   154  148  156 1   
   155  149  150 1   
   156  149  157 1   
   157  149  158 1   
   158  150  151 1   
   159  150  152 1   
   160  159  160 1   
   161  159  168 1   
   162  160  161 1   
   163  160  163 1   
   164  160  169 1   
   165  161  162 2   
   166  161  174 1   
   167  163  164 1   
   168  163  170 1   
   169  163  171 1   
   170  164  165 1   
   171  164  172 1   
   172  164  173 1   
   173  165  166 1   
   174  165  167 1   
   175  174  175 1   
   176  174  179 1   
   177  175  176 1   
   178  175  177 1   
   179  175  178 1   
   180  181  182 1   
   181  181  183 1   
   182  184  185 1   
   183  184  186 1   
   184  187  188 1   
   185  187  189 1   
   186  190  191 1   
   187  190  192 1   
   188  193  194 1   
   189  193  195 1   
   190  196  197 1   
   191  196  198 1   
@<TRIPOS>SUBSTRUCTURE
     1 MOL         1 TEMP              0 ****  ****    0 ROOT
