@<TRIPOS>MOLECULE
MOL
  178   175     1     0     0
SMALL
resp


@<TRIPOS>ATOM
      1 C1         -5.1810    8.2470    1.6960 c3        1 MOL     -0.388595
      2 C2         -6.1800    7.4180    0.9290 c         1 MOL      0.805564
      3 O1         -6.2380    7.6510   -0.2690 o         1 MOL     -0.598681
      4 H1         -4.9620    7.7630    2.6480 hc        1 MOL      0.088934
      5 H2         -4.2620    8.3390    1.1160 hc        1 MOL      0.088934
      6 H3         -5.5950    9.2380    1.8800 hc        1 MOL      0.088934
      7 N1         -6.9950    6.5200    1.5460 n         1 MOL     -0.802816
      8 C3         -8.0060    5.8140    0.7910 c3        1 MOL      0.588841
      9 C4         -7.4650    4.5160    0.0920 c         1 MOL      0.430131
     10 O2         -8.1900    3.4880   -0.0080 o         1 MOL     -0.516128
     11 C5         -9.3270    5.6850    1.6010 c3        1 MOL     -0.343777
     12 C6        -10.6210    5.5900    0.7020 c         1 MOL      0.674082
     13 O3        -11.5570    5.0030    1.3100 o         1 MOL     -0.705225
     14 O4        -10.6680    5.9210   -0.5040 o         1 MOL     -0.705225
     15 H4         -6.9150    6.4060    2.5540 hn        1 MOL      0.338604
     16 H5         -8.2430    6.4600   -0.0600 h1        1 MOL     -0.044048
     17 H6         -9.3770    6.5490    2.2630 hc        1 MOL      0.036841
     18 H7         -9.2020    4.7790    2.1930 hc        1 MOL      0.036841
     19 N2         -6.2270    4.4830   -0.3520 n         1 MOL     -0.581036
     20 C7         -5.4850    3.3770   -0.9820 c3        1 MOL      0.324255
     21 C8         -4.8400    2.4780    0.0320 c         1 MOL      0.457955
     22 O5         -4.0950    2.9220    0.9260 o         1 MOL     -0.555837
     23 C9         -4.5490    3.9190   -2.0790 c3        1 MOL     -0.166159
     24 H8         -5.7450    5.3670   -0.3130 hn        1 MOL      0.258628
     25 H9         -6.2180    2.7960   -1.5450 h1        1 MOL      0.047779
     26 H10        -4.2140    3.0300   -2.6190 hc        1 MOL      0.053026
     27 H11        -5.0610    4.5100   -2.8450 hc        1 MOL      0.053026
     28 H12        -3.7350    4.5600   -1.7330 hc        1 MOL      0.053026
     29 N3         -4.9870    1.1510    0.0130 n         1 MOL     -0.233461
     30 C10        -5.7160    0.2710   -0.8900 c3        1 MOL     -0.238724
     31 C11        -5.9730   -1.1010   -0.1900 c         1 MOL      0.668068
     32 O6         -5.3310   -1.5820    0.8140 o         1 MOL     -0.553644
     33 C12        -4.9510    0.0870   -2.2700 c3        1 MOL     -0.135416
     34 C13        -3.4800   -0.1980   -2.0120 c         1 MOL      0.624255
     35 O7         -3.1530   -1.3170   -1.5920 o         1 MOL     -0.661144
     36 O8         -2.5920    0.5470   -2.4590 o         1 MOL     -0.661144
     37 H13        -4.5610    0.6930    0.8130 hn        1 MOL      0.194755
     38 H14        -6.6930    0.7170   -1.0980 h1        1 MOL      0.091978
     39 H15        -5.1070    0.9590   -2.9090 hc        1 MOL      0.056389
     40 H16        -5.2870   -0.7490   -2.8790 hc        1 MOL      0.056389
     41 N4         -7.0190   -1.7470   -0.6470 n         1 MOL     -0.499483
     42 C14        -7.3410   -3.0940   -0.2080 c3        1 MOL      0.187626
     43 C15        -7.1660   -4.1270   -1.3030 c         1 MOL      0.529115
     44 O9         -8.1390   -4.5050   -1.8930 o         1 MOL     -0.572469
     45 H17        -7.4090   -1.4690   -1.5460 hn        1 MOL      0.323179
     46 H18        -8.3580   -3.2170    0.1700 h1        1 MOL      0.010487
     47 H19        -6.6940   -3.4470    0.5870 h1        1 MOL      0.010487
     48 N5         -6.0090   -4.6850   -1.6770 n         1 MOL     -0.463033
     49 C16        -4.7040   -4.3520   -1.1460 c3        1 MOL      0.100032
     50 C17        -4.4700   -5.2030    0.0900 c         1 MOL      0.417961
     51 O10        -4.4410   -6.4820    0.0610 o         1 MOL     -0.521983
     52 C18        -3.6370   -4.4870   -2.2490 c3        1 MOL     -0.216627
     53 C19        -2.2350   -4.1060   -1.8370 c         1 MOL      0.644961
     54 N6         -1.3790   -3.9460   -2.8020 n         1 MOL     -0.818484
     55 O11        -1.8900   -3.8970   -0.7000 o         1 MOL     -0.483198
     56 H20        -6.0480   -5.3040   -2.4840 hn        1 MOL      0.310382
     57 H21        -4.5790   -3.2840   -0.9370 h1        1 MOL      0.063724
     58 H22        -3.8860   -3.8210   -3.0710 hc        1 MOL      0.065242
     59 H23        -3.6160   -5.5430   -2.5450 hc        1 MOL      0.065242
     60 H24        -1.5960   -4.3330   -3.7100 hn        1 MOL      0.371666
     61 H25        -0.4830   -3.5260   -2.6050 hn        1 MOL      0.371666
     62 N7         -4.2730   -4.5260    1.2580 n         1 MOL     -0.123167
     63 C20        -3.8870   -5.1090    2.5800 c3        1 MOL     -0.468993
     64 C21        -2.4490   -5.5960    2.7030 c         1 MOL      0.615545
     65 O12        -2.0720   -6.4010    3.5700 o         1 MOL     -0.576000
     66 H26        -4.4140   -3.5220    1.2510 hn        1 MOL      0.243249
     67 H27        -4.4500   -6.0350    2.7070 h1        1 MOL      0.170466
     68 H28        -4.0430   -4.3690    3.3650 h1        1 MOL      0.170466
     69 N8         -1.5310   -5.0420    1.8670 n         1 MOL     -0.155521
     70 C22        -0.0830   -5.2290    1.9180 c3        1 MOL     -0.114119
     71 C23         0.6130   -3.8700    1.9250 c         1 MOL      0.435804
     72 O13         0.0810   -2.8280    1.5380 o         1 MOL     -0.566341
     73 C24         0.4750   -6.1550    0.8600 c3        1 MOL      0.460155
     74 C25        -0.0070   -7.5440    0.9780 c3        1 MOL     -0.393587
     75 O14         0.2760   -5.7890   -0.5330 oh        1 MOL     -0.621300
     76 H29        -1.8160   -4.4790    1.0840 hn        1 MOL      0.009414
     77 H30         0.1850   -5.6390    2.8900 h1        1 MOL      0.070174
     78 H31         1.5290   -6.2030    1.1060 h1        1 MOL     -0.006395
     79 H32        -0.4200   -5.1340   -0.6150 ho        1 MOL      0.415373
     80 H33        -1.0220   -7.8120    0.6830 hc        1 MOL      0.088271
     81 H34         0.5560   -8.2370    0.3450 hc        1 MOL      0.088271
     82 H35         0.0700   -7.8850    2.0030 hc        1 MOL      0.088271
     83 N9          1.9280   -3.9440    2.2530 n         1 MOL     -0.333591
     84 C26         2.8550   -2.8250    2.0880 c3        1 MOL      0.300409
     85 C27         3.5920   -2.9780    0.7480 c         1 MOL      0.156313
     86 O15         4.1530   -4.0530    0.4640 o         1 MOL     -0.557046
     87 C28         3.7890   -2.8540    3.2900 c3        1 MOL      0.085829
     88 C29         4.9910   -1.7770    3.2490 c3        1 MOL      0.086934
     89 C30         2.9830   -2.7630    4.6580 c3        1 MOL     -0.326887
     90 C31         4.6060   -0.3360    2.9590 c3        1 MOL     -0.361541
     91 H36         2.3730   -4.7960    2.5390 hn        1 MOL      0.238960
     92 H37         2.3390   -1.8740    2.0590 h1        1 MOL      0.036526
     93 H38         4.3390   -3.7880    3.2170 hc        1 MOL     -0.039471
     94 H39         5.7810   -2.0730    2.5590 hc        1 MOL     -0.009113
     95 H40         5.4360   -1.8580    4.2420 hc        1 MOL     -0.009113
     96 H41         2.3180   -3.6240    4.7440 hc        1 MOL      0.074383
     97 H42         3.5780   -2.7420    5.5670 hc        1 MOL      0.074383
     98 H43         2.3640   -1.8710    4.6060 hc        1 MOL      0.074383
     99 H44         4.2610   -0.2230    1.9300 hc        1 MOL      0.095452
    100 H45         3.8250   -0.0450    3.6490 hc        1 MOL      0.095452
    101 H46         5.5210    0.2390    3.0850 hc        1 MOL      0.095452
    102 N10         3.5940   -1.9710   -0.0870 n         1 MOL      0.380615
    103 C32         4.0210   -1.9810   -1.4360 c3        1 MOL     -0.186868
    104 C33         5.1320   -0.9030   -1.6450 c         1 MOL      0.636029
    105 O16         4.8470    0.0230   -2.3830 o         1 MOL     -0.533443
    106 C34         2.8480   -1.8250   -2.4880 c3        1 MOL     -0.044531
    107 C35         1.8870   -3.0030   -2.4180 c         1 MOL      0.656609
    108 O17         1.8370   -3.9440   -3.2810 o         1 MOL     -0.673387
    109 O18         0.9830   -2.7450   -1.6010 o         1 MOL     -0.673387
    110 H47         2.9740   -1.2400    0.2240 hn        1 MOL     -0.184334
    111 H48         4.4600   -2.9670   -1.6320 h1        1 MOL      0.062775
    112 H49         3.3180   -1.8960   -3.4730 hc        1 MOL      0.014708
    113 H50         2.2520   -0.9130   -2.5520 hc        1 MOL      0.014708
    114 N11         6.2300   -0.8710   -0.8950 n         1 MOL     -0.630231
    115 C36         7.3160    0.0430   -0.9200 c3        1 MOL      0.373642
    116 C37         6.9200    1.4300   -0.4840 c         1 MOL      0.257862
    117 O19         6.5300    1.5430    0.6960 o         1 MOL     -0.521398
    118 C38         8.4790   -0.4950   -0.0510 c3        1 MOL     -0.323401
    119 C39         9.7110    0.4730    0.0350 ca        1 MOL      0.101700
    120 C40        10.0580    1.1710    1.2260 ca        1 MOL     -0.174721
    121 C41        10.5540    0.7310   -1.0880 ca        1 MOL     -0.174721
    122 C42        11.1460    2.0690    1.2920 ca        1 MOL     -0.055079
    123 C43        11.5070    1.7150   -1.0530 ca        1 MOL     -0.055079
    124 C44        11.8410    2.4310    0.1270 ca        1 MOL     -0.198249
    125 H51         6.2340   -1.5420   -0.1340 hn        1 MOL      0.277030
    126 H52         7.6110    0.0880   -1.9770 h1        1 MOL      0.011131
    127 H53         8.8740   -1.3990   -0.5120 hc        1 MOL      0.125529
    128 H54         8.0730   -0.7740    0.9170 hc        1 MOL      0.125529
    129 H55         9.5630    0.9170    2.1550 ha        1 MOL      0.117442
    130 H56        10.4170    0.2020   -2.0180 ha        1 MOL      0.117442
    131 H57        11.4060    2.4520    2.2780 ha        1 MOL      0.096321
    132 H58        12.0820    1.9280   -1.9420 ha        1 MOL      0.096321
    133 H59        12.5420    3.2540    0.1220 ha        1 MOL      0.130863
    134 N12         7.1120    2.5470   -1.2130 n         1 MOL      0.189748
    135 C45         7.2260    3.9410   -0.6760 c3        1 MOL     -0.109198
    136 C46         5.8660    4.5270   -0.2470 c         1 MOL      0.430731
    137 O20         5.8300    5.5790    0.4010 o         1 MOL     -0.578449
    138 C47         7.6350    4.8690   -1.8610 c3        1 MOL     -0.050514
    139 C48         7.4080    4.0000   -3.0340 c3        1 MOL     -0.047720
    140 C49         7.5600    2.5750   -2.5160 c3        1 MOL     -0.077149
    141 H60         7.8720    3.9900    0.2100 h1        1 MOL      0.082334
    142 H61         7.1380    5.8340   -1.8620 hc        1 MOL      0.043277
    143 H62         8.7110    4.9800   -1.7580 hc        1 MOL      0.043277
    144 H63         6.3880    4.2070   -3.3530 hc        1 MOL      0.033687
    145 H64         8.1570    4.3370   -3.7480 hc        1 MOL      0.033687
    146 H65         7.0620    1.8190   -3.1350 h1        1 MOL      0.012739
    147 H66         8.6040    2.2470   -2.4800 h1        1 MOL      0.012739
    148 N13         4.8220    3.7660   -0.4350 n         1 MOL     -0.008676
    149 C50         3.5010    4.1980   -0.0560 c3        1 MOL     -0.271863
    150 C51         3.4160    4.4450    1.4640 c         1 MOL      0.527013
    151 O21         2.4140    5.0120    1.8920 o         1 MOL     -0.549736
    152 C52         2.4970    3.1620   -0.5970 c3        1 MOL     -0.060571
    153 C53         2.7790    1.7230   -0.1720 c3        1 MOL      0.389897
    154 C54         1.5730    0.8200   -0.3940 c         1 MOL      0.506224
    155 O22         0.7990    1.0690   -1.3570 o         1 MOL     -0.651459
    156 O23         1.4330   -0.1860    0.3550 o         1 MOL     -0.651459
    157 H67         4.9670    2.9070   -0.9500 hn        1 MOL      0.097801
    158 H68         3.3180    5.1450   -0.5690 h1        1 MOL      0.135319
    159 H69         2.4020    3.2890   -1.6760 hc        1 MOL      0.043080
    160 H70         1.5310    3.4090   -0.1480 hc        1 MOL      0.043080
    161 H71         3.0890    1.7690    0.8660 hc        1 MOL     -0.126337
    162 H72         3.7040    1.4030   -0.6550 hc        1 MOL     -0.126337
    163 N14         4.3610    4.0090    2.3240 n         1 MOL     -0.150155
    164 C55         4.3970    4.3060    3.7560 c3        1 MOL     -0.174325
    165 H73         4.8520    3.4700    4.2880 h1        1 MOL      0.078563
    166 H74         4.9850    5.2080    3.9250 h1        1 MOL      0.078563
    167 H75         3.3820    4.4590    4.1220 h1        1 MOL      0.078563
    168 H76         5.1650    3.5990    1.8620 hn        1 MOL      0.178663
    169 Ca1        -0.7550   -1.1230   -0.6810 Ca        1 MOL      1.749628
    170 O24        -0.5330   -0.8560   -3.3930 oh        1 MOL     -0.772233
    171 H77        -0.4800   -1.4740   -4.1230 ho        1 MOL      0.377365
    172 H78        -1.3960   -0.4520   -3.4910 ho        1 MOL      0.377365
    173 O25        -2.7670   -1.2420    1.4680 oh        1 MOL     -0.772233
    174 H79        -3.7130   -1.3650    1.5420 ho        1 MOL      0.377365
    175 H80        -2.5260   -0.7520    2.2470 ho        1 MOL      0.377365
    176 O26        -1.4150    1.1600    0.6840 oh        1 MOL     -0.772233
    177 H81        -1.5730    2.0720    0.4530 ho        1 MOL      0.377365
    178 H82        -1.5710    1.1170    1.6260 ho        1 MOL      0.377365
@<TRIPOS>BOND
     1    1    2 1   
     2    1    4 1   
     3    1    5 1   
     4    1    6 1   
     5    2    3 2   
     6    2    7 1   
     7    7    8 1   
     8    7   15 1   
     9    8    9 1   
    10    8   11 1   
    11    8   16 1   
    12    9   10 2   
    13    9   19 1   
    14   11   12 1   
    15   11   17 1   
    16   11   18 1   
    17   12   13 1   
    18   12   14 1   
    19   19   20 1   
    20   19   24 1   
    21   20   21 1   
    22   20   23 1   
    23   20   25 1   
    24   21   22 2   
    25   21   29 1   
    26   23   26 1   
    27   23   27 1   
    28   23   28 1   
    29   29   30 1   
    30   29   37 1   
    31   30   31 1   
    32   30   33 1   
    33   30   38 1   
    34   31   32 2   
    35   31   41 1   
    36   33   34 1   
    37   33   39 1   
    38   33   40 1   
    39   34   35 1   
    40   34   36 1   
    41   41   42 1   
    42   41   45 1   
    43   42   43 1   
    44   42   46 1   
    45   42   47 1   
    46   43   44 2   
    47   43   48 1   
    48   48   49 1   
    49   48   56 1   
    50   49   50 1   
    51   49   52 1   
    52   49   57 1   
    53   50   51 2   
    54   50   62 1   
    55   52   53 1   
    56   52   58 1   
    57   52   59 1   
    58   53   54 1   
    59   53   55 2   
    60   54   60 1   
    61   54   61 1   
    62   62   63 1   
    63   62   66 1   
    64   63   64 1   
    65   63   67 1   
    66   63   68 1   
    67   64   65 2   
    68   64   69 1   
    69   69   70 1   
    70   69   76 1   
    71   70   71 1   
    72   70   73 1   
    73   70   77 1   
    74   71   72 2   
    75   71   83 1   
    76   73   74 1   
    77   73   75 1   
    78   73   78 1   
    79   74   80 1   
    80   74   81 1   
    81   74   82 1   
    82   75   79 1   
    83   83   84 1   
    84   83   91 1   
    85   84   85 1   
    86   84   87 1   
    87   84   92 1   
    88   85   86 2   
    89   85  102 1   
    90   87   88 1   
    91   87   89 1   
    92   87   93 1   
    93   88   90 1   
    94   88   94 1   
    95   88   95 1   
    96   89   96 1   
    97   89   97 1   
    98   89   98 1   
    99   90   99 1   
   100   90  100 1   
   101   90  101 1   
   102  102  103 1   
   103  102  110 1   
   104  103  104 1   
   105  103  106 1   
   106  103  111 1   
   107  104  105 2   
   108  104  114 1   
   109  106  107 1   
   110  106  112 1   
   111  106  113 1   
   112  107  108 1   
   113  107  109 1   
   114  114  115 1   
   115  114  125 1   
   116  115  116 1   
   117  115  118 1   
   118  115  126 1   
   119  116  117 2   
   120  116  134 1   
   121  118  119 1   
   122  118  127 1   
   123  118  128 1   
   124  119  120 ar  
   125  119  121 ar  
   126  120  122 ar  
   127  120  129 1   
   128  121  123 ar  
   129  121  130 1   
   130  122  124 ar  
   131  122  131 1   
   132  123  124 ar  
   133  123  132 1   
   134  124  133 1   
   135  134  135 1   
   136  134  140 1   
   137  135  136 1   
   138  135  138 1   
   139  135  141 1   
   140  136  137 2   
   141  136  148 1   
   142  138  139 1   
   143  138  142 1   
   144  138  143 1   
   145  139  140 1   
   146  139  144 1   
   147  139  145 1   
   148  140  146 1   
   149  140  147 1   
   150  148  149 1   
   151  148  157 1   
   152  149  150 1   
   153  149  152 1   
   154  149  158 1   
   155  150  151 2   
   156  150  163 1   
   157  152  153 1   
   158  152  159 1   
   159  152  160 1   
   160  153  154 1   
   161  153  161 1   
   162  153  162 1   
   163  154  155 1   
   164  154  156 1   
   165  163  164 1   
   166  163  168 1   
   167  164  165 1   
   168  164  166 1   
   169  164  167 1   
   170  170  171 1   
   171  170  172 1   
   172  173  174 1   
   173  173  175 1   
   174  176  177 1   
   175  176  178 1   
@<TRIPOS>SUBSTRUCTURE
     1 MOL         1 TEMP              0 ****  ****    0 ROOT
