@<TRIPOS>MOLECULE
MOL
  192   187     1     0     0
SMALL
resp


@<TRIPOS>ATOM
      1 C1         -4.3240   -3.1160    2.7040 c3        1 MOL      0.021486
      2 C2         -3.3580   -3.5270    1.5830 c         1 MOL      0.353791
      3 O1         -2.4320   -2.7810    1.2430 o         1 MOL     -0.420978
      4 H1         -3.8460   -2.3690    3.3380 hc        1 MOL     -0.009778
      5 H2         -5.2300   -2.6970    2.2690 hc        1 MOL     -0.009778
      6 H3         -4.5790   -3.9910    3.3030 hc        1 MOL     -0.009778
      7 N1         -3.4430   -4.7190    1.0150 n         1 MOL     -0.434080
      8 C3         -2.7340   -5.0510   -0.2910 c3        1 MOL      0.031616
      9 C4         -1.2100   -4.9790   -0.2400 c         1 MOL      0.669594
     10 O2         -0.6140   -4.5830   -1.2020 o         1 MOL     -0.530820
     11 C5         -3.2420   -4.1210   -1.3410 c3        1 MOL     -0.429809
     12 C6         -4.7230   -3.7800   -1.2300 c         1 MOL      0.992804
     13 O3         -5.5760   -4.6080   -0.7760 o         1 MOL     -0.826581
     14 O4         -5.0440   -2.6540   -1.6880 o         1 MOL     -0.826581
     15 H4         -4.2010   -5.3080    1.3580 hn        1 MOL      0.264825
     16 H5         -3.1150   -6.0210   -0.6310 h1        1 MOL      0.079783
     17 H6         -3.0560   -4.5660   -2.3130 hc        1 MOL      0.142067
     18 H7         -2.6750   -3.1900   -1.2840 hc        1 MOL      0.142067
     19 N2         -0.5700   -5.2940    0.8660 n         1 MOL     -0.520110
     20 C7          0.7880   -4.9180    1.2890 c3        1 MOL     -0.394149
     21 C8          1.7400   -5.8790    0.5370 c         1 MOL      0.557837
     22 O5          1.3960   -7.0400    0.3310 o         1 MOL     -0.574558
     23 C9          0.8850   -4.8250    2.8570 c3        1 MOL      0.531665
     24 C10         0.9000   -6.1850    3.5210 c3        1 MOL     -0.088767
     25 C11        -0.2720   -3.8710    3.2460 c3        1 MOL     -0.076142
     26 C12         1.3220   -6.0460    4.9870 c3        1 MOL     -0.265620
     27 H8         -1.1200   -5.8210    1.5280 hn        1 MOL      0.248968
     28 H9          0.9740   -3.9370    0.8460 h1        1 MOL      0.204096
     29 H10         1.8520   -4.3760    3.0920 hc        1 MOL     -0.019937
     30 H11         1.6520   -6.8720    3.1330 hc        1 MOL      0.050616
     31 H12        -0.0730   -6.6790    3.4520 hc        1 MOL      0.050616
     32 H13        -0.1320   -3.0020    2.6130 hc        1 MOL     -0.006808
     33 H14        -1.2220   -4.3940    3.1120 hc        1 MOL     -0.006808
     34 H15        -0.0410   -3.5940    4.2760 hc        1 MOL     -0.006808
     35 H16         2.4040   -6.0110    5.0440 hc        1 MOL      0.047878
     36 H17         0.8190   -5.1740    5.4050 hc        1 MOL      0.047878
     37 H18         0.9630   -6.9470    5.4960 hc        1 MOL      0.047878
     38 N3          2.9930   -5.5260    0.3180 n         1 MOL     -0.342037
     39 C13         3.6550   -4.2030    0.5820 c3        1 MOL     -0.178188
     40 C14         3.7720   -3.3620   -0.7230 c         1 MOL      0.458547
     41 O6          4.1060   -2.1720   -0.6080 o         1 MOL     -0.486346
     42 C15         5.1160   -4.5150    1.1530 c3        1 MOL     -0.338611
     43 C16         6.0020   -5.3180    0.2710 c         1 MOL      0.773114
     44 O7          6.9970   -4.8130   -0.2470 o         1 MOL     -0.680848
     45 O8          5.8250   -6.5800    0.1160 o         1 MOL     -0.680848
     46 H19         3.5400   -6.2370   -0.1350 hn        1 MOL      0.219694
     47 H20         3.0920   -3.6200    1.3040 h1        1 MOL      0.166957
     48 H21         4.9020   -5.1000    2.0490 hc        1 MOL      0.110711
     49 H22         5.5350   -3.5340    1.3520 hc        1 MOL      0.110711
     50 N4          3.5580   -3.9240   -1.9580 n         1 MOL     -0.202547
     51 C17         3.5830   -3.0730   -3.1640 c3        1 MOL     -0.349561
     52 C18         5.0640   -2.6280   -3.4540 c         1 MOL      0.535205
     53 O9          5.8660   -3.5380   -3.7450 o         1 MOL     -0.528013
     54 H23         3.2810   -4.8950   -1.9890 hn        1 MOL      0.291035
     55 H24         3.0260   -2.1470   -3.0660 h1        1 MOL      0.134542
     56 H25         3.2850   -3.7250   -3.9950 h1        1 MOL      0.134542
     57 N5          5.2880   -1.2950   -3.3340 n         1 MOL     -0.475298
     58 C19         6.5600   -0.5960   -3.5860 c3        1 MOL      0.111514
     59 C20         7.4070   -0.6550   -2.3030 c         1 MOL      0.392154
     60 O10         8.5080   -0.1200   -2.2970 o         1 MOL     -0.524429
     61 C21         6.1520    0.8620   -4.0260 c3        1 MOL     -0.306864
     62 C22         5.2320    1.5860   -3.1010 c         1 MOL      0.691080
     63 O11         5.0120    1.1440   -1.9370 o         1 MOL     -0.676698
     64 O12         4.7310    2.6590   -3.5310 o         1 MOL     -0.676698
     65 H26         4.4710   -0.7670   -3.0360 hn        1 MOL      0.343312
     66 H27         7.1500   -1.0640   -4.3710 h1        1 MOL      0.077798
     67 H28         5.7870    0.8780   -5.0580 hc        1 MOL      0.070946
     68 H29         7.0200    1.5190   -4.0040 hc        1 MOL      0.070946
     69 N6          6.9490   -1.1920   -1.1040 n         1 MOL     -0.197962
     70 C23         7.5970   -0.8960    0.1810 c3        1 MOL     -0.168510
     71 C24         7.6360    0.5070    0.6240 c         1 MOL      0.385451
     72 O13         8.1820    0.9000    1.6850 o         1 MOL     -0.595102
     73 H30         5.9790   -1.4850   -1.1170 hn        1 MOL      0.289075
     74 H31         8.6490   -1.1680    0.1280 h1        1 MOL      0.112530
     75 H32         7.1550   -1.6210    0.8650 h1        1 MOL      0.112530
     76 N7          7.0220    1.4080   -0.1410 n         1 MOL      0.188059
     77 C25         6.9820    2.8720    0.1300 c3        1 MOL      0.214671
     78 C26         6.4030    3.1640    1.5420 c         1 MOL      0.478422
     79 O14         6.8480    4.0990    2.1790 o         1 MOL     -0.540228
     80 C27         8.2460    3.5510   -0.3380 c3        1 MOL     -0.243867
     81 C28         8.6780    3.2920   -1.8350 c3        1 MOL      0.065191
     82 C29         9.5070    4.3760   -2.4840 c         1 MOL      0.592529
     83 N8         10.0260    4.2390   -3.6640 n         1 MOL     -0.781754
     84 O15         9.6820    5.5010   -1.9410 o         1 MOL     -0.587413
     85 H33         6.7700    1.0220   -1.0380 hn        1 MOL     -0.104430
     86 H34         6.2410    3.2610   -0.5620 h1        1 MOL      0.052715
     87 H35         9.0690    3.3590    0.3500 hc        1 MOL      0.050450
     88 H36         7.9730    4.6020   -0.3120 hc        1 MOL      0.050450
     89 H37         7.8680    3.0070   -2.5050 hc        1 MOL      0.010435
     90 H38         9.2080    2.3490   -1.9410 hc        1 MOL      0.010435
     91 H39         9.6640    3.5010   -4.2570 hn        1 MOL      0.350651
     92 H40        10.3930    5.1180   -4.0060 hn        1 MOL      0.350651
     93 N9          5.3000    2.5090    1.9750 n         1 MOL     -0.391652
     94 C30         4.6320    2.8260    3.2980 c3        1 MOL      0.128608
     95 C31         3.1200    2.7300    3.2040 c         1 MOL      0.519402
     96 O16         2.5150    3.6350    3.6360 o         1 MOL     -0.559048
     97 C32         5.0910    1.8990    4.4590 c3        1 MOL      0.127506
     98 C33         4.6930    0.3800    4.2190 c3        1 MOL     -0.180500
     99 C34         6.5560    2.0450    4.8010 c3        1 MOL     -0.180500
    100 H41         4.9070    1.8930    1.2750 hn        1 MOL      0.094171
    101 H42         4.7650    3.8450    3.6750 h1        1 MOL      0.060803
    102 H43         4.4880    2.2120    5.3070 hc        1 MOL     -0.053764
    103 H44         5.2530   -0.2480    4.9170 hc        1 MOL      0.041526
    104 H45         3.6340    0.2100    4.3970 hc        1 MOL      0.041526
    105 H46         4.8970    0.0710    3.1940 hc        1 MOL      0.041526
    106 H47         6.8110    1.6930    5.7910 hc        1 MOL      0.041526
    107 H48         7.0590    1.5210    3.9850 hc        1 MOL      0.041526
    108 H49         6.8420    3.1000    4.7450 hc        1 MOL      0.041526
    109 N10         2.5450    1.8440    2.4070 n         1 MOL     -0.412005
    110 C35         1.1380    1.6650    1.9350 c3        1 MOL      0.040448
    111 C36         0.7290    2.4510    0.6850 c         1 MOL      0.746869
    112 O17         1.5390    2.8080   -0.1610 o         1 MOL     -0.545989
    113 C37         0.9020    0.1290    1.7220 c3        1 MOL     -0.179678
    114 C38         1.4270   -0.7140    2.8510 c         1 MOL      0.466389
    115 N11         1.0110   -0.4240    4.0380 n         1 MOL     -0.776332
    116 O18         2.2790   -1.5300    2.7110 o         1 MOL     -0.526246
    117 H50         3.2010    1.1700    2.0410 hn        1 MOL      0.366869
    118 H51         0.4580    1.9650    2.7270 h1        1 MOL      0.024070
    119 H52         1.4460   -0.1360    0.8170 hc        1 MOL      0.112500
    120 H53        -0.1550   -0.1320    1.6610 hc        1 MOL      0.112500
    121 H54         0.2680    0.2500    4.1250 hn        1 MOL      0.377460
    122 H55         1.4260   -0.8730    4.8450 hn        1 MOL      0.377460
    123 N12        -0.5600    2.7090    0.5230 n         1 MOL     -0.667514
    124 C39        -1.2010    3.7130   -0.3860 c3        1 MOL      0.184012
    125 C40        -2.5220    4.2080    0.1370 c         1 MOL      0.531526
    126 O19        -3.0280    3.6330    1.0950 o         1 MOL     -0.544314
    127 C41        -1.1750    3.0570   -1.8240 c3        1 MOL     -0.158816
    128 C42        -2.3660    2.1510   -2.1360 ca        1 MOL      0.007351
    129 C43        -2.1920    0.7590   -1.9400 ca        1 MOL     -0.109434
    130 C44        -3.5510    2.6500   -2.7680 ca        1 MOL     -0.109434
    131 C45        -3.3180   -0.0550   -2.2740 ca        1 MOL     -0.290563
    132 C46        -4.5970    1.7680   -3.1630 ca        1 MOL     -0.290563
    133 C47        -4.5120    0.3760   -2.8330 ca        1 MOL      0.299216
    134 O20        -5.5280   -0.4980   -3.0090 oh        1 MOL     -0.529361
    135 H56        -1.2380    2.3180    1.1660 hn        1 MOL      0.297792
    136 H57        -0.5240    4.5660   -0.4610 h1        1 MOL      0.067860
    137 H58        -0.3250    2.4370   -2.0880 hc        1 MOL      0.080237
    138 H59        -1.0470    3.9170   -2.4690 hc        1 MOL      0.080237
    139 H60        -1.2880    0.4810   -1.4280 ha        1 MOL      0.120643
    140 H61        -3.6380    3.7020   -2.9760 ha        1 MOL      0.120643
    141 H62        -3.2820   -1.1030   -2.0030 ha        1 MOL      0.147206
    142 H63        -5.5030    2.0780   -3.6660 ha        1 MOL      0.147206
    143 H64        -5.3570   -1.3060   -2.5390 ho        1 MOL      0.480778
    144 N13        -3.1290    5.2750   -0.4220 n         1 MOL     -0.500716
    145 C48        -4.5160    5.6200   -0.1530 c3        1 MOL      0.382749
    146 C49        -5.4670    5.0080   -1.2380 c         1 MOL      0.160773
    147 O21        -5.6020    5.4630   -2.4070 o         1 MOL     -0.524642
    148 C50        -4.5120    7.1400   -0.1900 c3        1 MOL     -0.080414
    149 C51        -3.8060    7.7840    1.0370 c3        1 MOL     -0.192971
    150 C52        -4.0480    9.3200    0.9150 c         1 MOL      0.629708
    151 O22        -3.5420    9.9270   -0.0500 o         1 MOL     -0.682422
    152 O23        -4.9460    9.7810    1.6460 o         1 MOL     -0.682422
    153 H65        -2.5730    5.8140   -1.0850 hn        1 MOL      0.291979
    154 H66        -4.7150    5.3110    0.8760 h1        1 MOL     -0.035445
    155 H67        -5.5590    7.3920   -0.0000 hc        1 MOL      0.069466
    156 H68        -4.2750    7.5010   -1.1830 hc        1 MOL      0.069466
    157 H69        -2.7670    7.4630    0.9850 hc        1 MOL      0.020190
    158 H70        -4.3670    7.4990    1.9320 hc        1 MOL      0.020190
    159 N14        -6.0880    3.8810   -1.0020 n         1 MOL     -0.120168
    160 C53        -6.1560    3.0780    0.1950 c3        1 MOL     -0.141996
    161 C54        -7.1900    3.5430    1.2810 c         1 MOL      0.457043
    162 O24        -8.2280    4.2030    0.9880 o         1 MOL     -0.549136
    163 C55        -6.4090    1.6150   -0.0720 c3        1 MOL      0.247551
    164 C56        -7.6920    1.2050   -0.8150 c3        1 MOL     -0.393546
    165 C57        -7.7930   -0.3420   -0.8530 c         1 MOL      0.580105
    166 O25        -8.2890   -1.0130   -1.8060 o         1 MOL     -0.647101
    167 O26        -7.3110   -0.9990    0.1350 o         1 MOL     -0.647101
    168 H71        -6.5960    3.5000   -1.7910 hn        1 MOL      0.255156
    169 H72        -5.2290    3.2410    0.7420 h1        1 MOL      0.049317
    170 H73        -6.3420    1.0530    0.8630 hc        1 MOL     -0.022039
    171 H74        -5.6290    1.1390   -0.6580 hc        1 MOL     -0.022039
    172 H75        -7.7240    1.6110   -1.8280 hc        1 MOL      0.103279
    173 H76        -8.5500    1.5870   -0.2730 hc        1 MOL      0.103279
    174 N15        -6.9470    3.1820    2.5440 n         1 MOL     -0.166225
    175 C58        -7.7010    3.3680    3.7140 c3        1 MOL     -0.179872
    176 H77        -7.2400    4.1480    4.3220 h1        1 MOL      0.076731
    177 H78        -8.7160    3.6670    3.4500 h1        1 MOL      0.076731
    178 H79        -7.7320    2.4370    4.2800 h1        1 MOL      0.076731
    179 H80        -6.1070    2.6480    2.6870 hn        1 MOL      0.232014
    180 Ca1        -7.7140   -3.3610   -0.7380 Ca        1 MOL      1.710680
    181 O27        -7.6580   -3.3380   -3.6720 oh        1 MOL     -0.837181
    182 H81        -8.0040   -2.4650   -3.8880 ho        1 MOL      0.386532
    183 H82        -7.1200   -3.5750   -4.4170 ho        1 MOL      0.386532
    184 O28        -8.3210   -5.8240   -1.2060 oh        1 MOL     -0.837181
    185 H83        -9.1780   -6.1880   -1.4210 ho        1 MOL      0.386532
    186 H84        -7.6990   -6.5120   -1.4640 ho        1 MOL      0.386532
    187 O29       -10.5630   -3.4720   -1.1910 oh        1 MOL     -0.837181
    188 H85       -10.8500   -3.9520   -1.9690 ho        1 MOL      0.386532
    189 H86       -11.1970   -3.7000   -0.5190 ho        1 MOL      0.386532
    190 O30        -9.6860   -2.7280    1.4610 oh        1 MOL     -0.837181
    191 H87        -9.6780   -1.9460    2.0250 ho        1 MOL      0.386532
    192 H88       -10.5970   -3.0370    1.4980 ho        1 MOL      0.386532
@<TRIPOS>BOND
     1    1    2 1   
     2    1    4 1   
     3    1    5 1   
     4    1    6 1   
     5    2    3 2   
     6    2    7 1   
     7    7    8 1   
     8    7   15 1   
     9    8    9 1   
    10    8   11 1   
    11    8   16 1   
    12    9   10 2   
    13    9   19 1   
    14   11   12 1   
    15   11   17 1   
    16   11   18 1   
    17   12   13 1   
    18   12   14 1   
    19   19   20 1   
    20   19   27 1   
    21   20   21 1   
    22   20   23 1   
    23   20   28 1   
    24   21   22 2   
    25   21   38 1   
    26   23   24 1   
    27   23   25 1   
    28   23   29 1   
    29   24   26 1   
    30   24   30 1   
    31   24   31 1   
    32   25   32 1   
    33   25   33 1   
    34   25   34 1   
    35   26   35 1   
    36   26   36 1   
    37   26   37 1   
    38   38   39 1   
    39   38   46 1   
    40   39   40 1   
    41   39   42 1   
    42   39   47 1   
    43   40   41 2   
    44   40   50 1   
    45   42   43 1   
    46   42   48 1   
    47   42   49 1   
    48   43   44 1   
    49   43   45 1   
    50   50   51 1   
    51   50   54 1   
    52   51   52 1   
    53   51   55 1   
    54   51   56 1   
    55   52   53 2   
    56   52   57 1   
    57   57   58 1   
    58   57   65 1   
    59   58   59 1   
    60   58   61 1   
    61   58   66 1   
    62   59   60 2   
    63   59   69 1   
    64   61   62 1   
    65   61   67 1   
    66   61   68 1   
    67   62   63 1   
    68   62   64 1   
    69   69   70 1   
    70   69   73 1   
    71   70   71 1   
    72   70   74 1   
    73   70   75 1   
    74   71   72 2   
    75   71   76 1   
    76   76   77 1   
    77   76   85 1   
    78   77   78 1   
    79   77   80 1   
    80   77   86 1   
    81   78   79 2   
    82   78   93 1   
    83   80   81 1   
    84   80   87 1   
    85   80   88 1   
    86   81   82 1   
    87   81   89 1   
    88   81   90 1   
    89   82   83 1   
    90   82   84 2   
    91   83   91 1   
    92   83   92 1   
    93   93   94 1   
    94   93  100 1   
    95   94   95 1   
    96   94   97 1   
    97   94  101 1   
    98   95   96 2   
    99   95  109 1   
   100   97   98 1   
   101   97   99 1   
   102   97  102 1   
   103   98  103 1   
   104   98  104 1   
   105   98  105 1   
   106   99  106 1   
   107   99  107 1   
   108   99  108 1   
   109  109  110 1   
   110  109  117 1   
   111  110  111 1   
   112  110  113 1   
   113  110  118 1   
   114  111  112 2   
   115  111  123 1   
   116  113  114 1   
   117  113  119 1   
   118  113  120 1   
   119  114  115 1   
   120  114  116 2   
   121  115  121 1   
   122  115  122 1   
   123  123  124 1   
   124  123  135 1   
   125  124  125 1   
   126  124  127 1   
   127  124  136 1   
   128  125  126 2   
   129  125  144 1   
   130  127  128 1   
   131  127  137 1   
   132  127  138 1   
   133  128  129 ar  
   134  128  130 ar  
   135  129  131 ar  
   136  129  139 1   
   137  130  132 ar  
   138  130  140 1   
   139  131  133 ar  
   140  131  141 1   
   141  132  133 ar  
   142  132  142 1   
   143  133  134 1   
   144  134  143 1   
   145  144  145 1   
   146  144  153 1   
   147  145  146 1   
   148  145  148 1   
   149  145  154 1   
   150  146  147 2   
   151  146  159 1   
   152  148  149 1   
   153  148  155 1   
   154  148  156 1   
   155  149  150 1   
   156  149  157 1   
   157  149  158 1   
   158  150  151 1   
   159  150  152 1   
   160  159  160 1   
   161  159  168 1   
   162  160  161 1   
   163  160  163 1   
   164  160  169 1   
   165  161  162 2   
   166  161  174 1   
   167  163  164 1   
   168  163  170 1   
   169  163  171 1   
   170  164  165 1   
   171  164  172 1   
   172  164  173 1   
   173  165  166 1   
   174  165  167 1   
   175  174  175 1   
   176  174  179 1   
   177  175  176 1   
   178  175  177 1   
   179  175  178 1   
   180  181  182 1   
   181  181  183 1   
   182  184  185 1   
   183  184  186 1   
   184  187  188 1   
   185  187  189 1   
   186  190  191 1   
   187  190  192 1   
@<TRIPOS>SUBSTRUCTURE
     1 MOL         1 TEMP              0 ****  ****    0 ROOT
