@<TRIPOS>MOLECULE
MOL
  182   178     1     0     0
SMALL
resp


@<TRIPOS>ATOM
      1 C1          2.6160   -5.2300    5.9990 c3        1 MOL     -0.416180
      2 C2          2.5810   -4.6050    4.5370 c         1 MOL      0.738702
      3 O1          1.5750   -4.8140    3.8190 o         1 MOL     -0.639375
      4 H1          3.0580   -6.2260    5.9570 hc        1 MOL      0.121658
      5 H2          3.2140   -4.5950    6.6520 hc        1 MOL      0.121658
      6 H3          1.6010   -5.3000    6.3900 hc        1 MOL      0.121658
      7 N1          3.4760   -3.7280    4.1340 n         1 MOL     -0.565131
      8 C3          3.3050   -3.0110    2.8410 c3        1 MOL      0.075811
      9 C4          3.6670   -4.0150    1.6710 c         1 MOL      0.526415
     10 O2          4.7100   -4.6910    1.6920 o         1 MOL     -0.565210
     11 C5          4.1270   -1.7300    2.7700 c3        1 MOL      0.012479
     12 C6          3.8910   -0.9200    1.5450 c         1 MOL      0.513592
     13 O3          4.4000    0.2060    1.4650 o         1 MOL     -0.664194
     14 O4          3.2940   -1.3630    0.5210 o         1 MOL     -0.664194
     15 H4          4.2020   -3.4910    4.7890 hn        1 MOL      0.328144
     16 H5          2.2710   -2.7030    2.6810 h1        1 MOL     -0.121892
     17 H6          5.1780   -1.9970    2.8240 hc        1 MOL      0.043544
     18 H7          3.9320   -1.0730    3.6200 hc        1 MOL      0.043544
     19 N2          2.8470   -4.2260    0.7020 n         1 MOL     -0.114225
     20 C7          2.9680   -5.1170   -0.4610 c3        1 MOL     -0.113520
     21 C8          4.0610   -4.7470   -1.4270 c         1 MOL      0.556493
     22 O5          4.4280   -5.6480   -2.1660 o         1 MOL     -0.548530
     23 C9          1.5890   -5.1900   -1.1870 c3        1 MOL      0.136744
     24 C10         0.5140   -5.9310   -0.4720 c3        1 MOL     -0.213942
     25 C11        -0.8030   -5.5970   -1.1730 c3        1 MOL      0.040746
     26 C12        -0.7810   -6.1570   -2.6120 c3        1 MOL      0.061157
     27 N3         -2.0690   -5.9960   -3.2970 n4        1 MOL     -0.352660
     28 H8          2.0490   -3.6180    0.7520 hn        1 MOL      0.097611
     29 H9          3.1600   -6.1170   -0.0840 h1        1 MOL      0.113875
     30 H10         1.7850   -5.7240   -2.1120 hc        1 MOL     -0.009054
     31 H11         1.1680   -4.2040   -1.3910 hc        1 MOL     -0.009054
     32 H12         0.4220   -5.5670    0.5430 hc        1 MOL      0.082379
     33 H13         0.7760   -6.9690   -0.6630 hc        1 MOL      0.082379
     34 H14        -0.9640   -4.5260   -1.2540 hc        1 MOL      0.023607
     35 H15        -1.6190   -6.1120   -0.6560 hc        1 MOL      0.023607
     36 H16        -0.5160   -7.2100   -2.5120 hx        1 MOL      0.074218
     37 H17         0.0020   -5.6450   -3.1690 hx        1 MOL      0.074218
     38 H18        -2.4280   -5.0560   -3.2830 hn        1 MOL      0.297798
     39 H19        -2.0520   -6.2250   -4.2770 hn        1 MOL      0.297798
     40 H20        -2.7700   -6.6810   -3.0320 hn        1 MOL      0.297798
     41 N4          4.5100   -3.4340   -1.5440 n         1 MOL     -0.426231
     42 C13         5.5940   -3.0330   -2.5140 c3        1 MOL      0.154909
     43 C14         6.7210   -2.2850   -1.8230 c         1 MOL      0.357797
     44 O6          7.8470   -2.2310   -2.3600 o         1 MOL     -0.540800
     45 C15         4.9510   -2.2850   -3.7130 c3        1 MOL     -0.430613
     46 C16         4.2150   -0.9310   -3.3850 c         1 MOL      0.913849
     47 O7          4.0980   -0.5670   -2.2000 o         1 MOL     -0.762374
     48 O8          3.7250   -0.2340   -4.2840 o         1 MOL     -0.762374
     49 H21         4.0790   -2.8240   -0.8670 hn        1 MOL      0.133794
     50 H22         6.0160   -3.9530   -2.9070 h1        1 MOL      0.108574
     51 H23         4.1880   -2.9100   -4.1620 hc        1 MOL      0.108538
     52 H24         5.6790   -1.9570   -4.4540 hc        1 MOL      0.108538
     53 N5          6.4990   -1.7630   -0.6640 n         1 MOL     -0.041636
     54 C17         7.4970   -1.1110    0.1330 c3        1 MOL     -0.446179
     55 C18         7.4610    0.4210    0.0110 c         1 MOL      0.558279
     56 O9          8.2290    1.1510    0.6990 o         1 MOL     -0.560110
     57 H25         5.5730   -1.7350   -0.2450 hn        1 MOL      0.171848
     58 H26         8.5030   -1.4470   -0.1370 h1        1 MOL      0.185735
     59 H27         7.2290   -1.3990    1.1470 h1        1 MOL      0.185735
     60 N6          6.6750    0.8610   -0.9220 n         1 MOL     -0.008358
     61 C19         6.6060    2.2590   -1.3060 c3        1 MOL     -0.300780
     62 C20         5.3130    2.9730   -0.8830 c         1 MOL      0.777494
     63 O10         4.3360    2.3480   -0.5740 o         1 MOL     -0.550000
     64 C21         6.8170    2.4410   -2.8290 c3        1 MOL     -0.077292
     65 C22         8.1990    1.9700   -3.3210 c         1 MOL      0.580458
     66 N7          8.2620    1.2030   -4.3460 n         1 MOL     -0.756523
     67 O11         9.2620    2.3010   -2.7220 o         1 MOL     -0.530221
     68 H28         5.9780    0.2320   -1.2890 hn        1 MOL      0.177396
     69 H29         7.5260    2.7360   -0.9720 h1        1 MOL      0.118447
     70 H30         6.7150    3.5040   -3.0750 hc        1 MOL      0.006369
     71 H31         6.0430    1.9180   -3.3890 hc        1 MOL      0.006369
     72 H32         7.4230    0.9110   -4.8350 hn        1 MOL      0.382213
     73 H33         9.1820    0.9100   -4.6400 hn        1 MOL      0.382213
     74 N8          5.2150    4.2990   -1.0240 n         1 MOL     -0.603093
     75 C23         4.0550    5.2050   -1.0030 c3        1 MOL      0.021948
     76 C24         3.2770    5.2090    0.3440 c         1 MOL      0.544033
     77 O12         3.8460    5.3340    1.4250 o         1 MOL     -0.494785
     78 H34         5.9860    4.8910   -1.3230 hn        1 MOL      0.359550
     79 H35         3.4450    5.0430   -1.8930 h1        1 MOL      0.053959
     80 H36         4.3450    6.2250   -1.2100 h1        1 MOL      0.053959
     81 N9          1.9910    4.9070    0.3930 n         1 MOL     -0.562160
     82 C25         1.1720    4.5410    1.5950 c3        1 MOL      0.494373
     83 C26         1.1960    2.9610    1.8350 c         1 MOL      0.187755
     84 O13         1.9330    2.2210    1.1910 o         1 MOL     -0.328719
     85 C27        -0.2600    5.0430    1.4470 c3        1 MOL     -0.104636
     86 C28        -0.4320    6.5180    0.9780 ca        1 MOL      0.009373
     87 C29        -1.0610    6.8220   -0.2670 ca        1 MOL     -0.128147
     88 C30        -0.0670    7.6050    1.7970 ca        1 MOL     -0.128147
     89 C31        -1.2900    8.1580   -0.7420 ca        1 MOL     -0.269822
     90 C32        -0.2850    8.8860    1.3810 ca        1 MOL     -0.269822
     91 C33        -0.8360    9.2010    0.0640 ca        1 MOL      0.360453
     92 O14        -1.1260   10.4170   -0.3860 oh        1 MOL     -0.464719
     93 H37         1.4180    4.9330   -0.4350 hn        1 MOL      0.215603
     94 H38         1.6090    5.0630    2.4450 h1        1 MOL      0.009054
     95 H39        -0.8070    4.7660    2.3430 hc        1 MOL      0.005027
     96 H40        -0.6110    4.4420    0.6070 hc        1 MOL      0.005027
     97 H41        -1.2640    6.0030   -0.9410 ha        1 MOL      0.123320
     98 H42         0.5350    7.3580    2.6540 ha        1 MOL      0.123320
     99 H43        -1.6740    8.2480   -1.7470 ha        1 MOL      0.160692
    100 H44         0.1210    9.6920    1.9670 ha        1 MOL      0.160692
    101 H45        -1.7910   10.3820   -1.0690 ho        1 MOL      0.364328
    102 N10         0.2900    2.4250    2.6620 n         1 MOL     -0.500779
    103 C34         0.0440    1.0220    3.0140 c3        1 MOL      0.000362
    104 C35        -0.2770    0.0810    1.7870 c         1 MOL      0.695729
    105 O15         0.3450   -0.0410    0.7120 o         1 MOL     -0.525790
    106 C36         1.1800    0.3980    3.8400 c3        1 MOL      0.594717
    107 C37         0.6300   -0.4490    4.9920 c3        1 MOL     -0.096923
    108 C38         2.2560    1.3080    4.4130 c3        1 MOL     -0.311944
    109 C39        -0.0200    0.1930    6.1930 c3        1 MOL     -0.431350
    110 H46        -0.1520    3.1490    3.2010 hn        1 MOL      0.288623
    111 H47        -0.8510    1.0520    3.6410 h1        1 MOL      0.038393
    112 H48         1.6810   -0.2570    3.1130 hc        1 MOL     -0.186950
    113 H49         1.3810   -1.1130    5.4060 hc        1 MOL      0.048181
    114 H50        -0.1380   -1.0670    4.5310 hc        1 MOL      0.048181
    115 H51         2.7380    1.8770    3.6160 hc        1 MOL      0.074341
    116 H52         1.7060    2.0320    5.0260 hc        1 MOL      0.074341
    117 H53         2.9940    0.6990    4.9370 hc        1 MOL      0.074341
    118 H54        -0.5910   -0.5430    6.7590 hc        1 MOL      0.111761
    119 H55         0.8320    0.5360    6.7780 hc        1 MOL      0.111761
    120 H56        -0.5600    1.0620    5.8190 hc        1 MOL      0.111761
    121 N11        -1.4360   -0.6600    1.9990 n         1 MOL     -0.702387
    122 C40        -1.8320   -1.8010    1.1790 c3        1 MOL      0.085146
    123 C41        -3.3010   -1.8720    0.7330 c         1 MOL      0.578955
    124 O16        -3.6890   -2.7950    0.0410 o         1 MOL     -0.602740
    125 C42        -1.3770   -3.1490    1.8030 c3        1 MOL      0.156218
    126 O17        -0.0090   -3.1670    2.1690 oh        1 MOL     -0.392855
    127 H57        -1.9500   -0.5280    2.8650 hn        1 MOL      0.351880
    128 H58        -1.3330   -1.7890    0.2040 h1        1 MOL      0.084034
    129 H59        -1.5380   -3.9430    1.0720 h1        1 MOL      0.012787
    130 H60        -2.0100   -3.3890    2.6540 h1        1 MOL      0.012787
    131 H61         0.2750   -3.7360    2.8820 ho        1 MOL      0.339751
    132 N12        -4.1970   -0.9180    1.0640 n         1 MOL     -0.501753
    133 C43        -5.5440   -0.7260    0.5820 c3        1 MOL      0.150631
    134 C44        -5.6540    0.0160   -0.8380 c         1 MOL      0.650575
    135 O18        -4.7910    0.8180   -1.1740 o         1 MOL     -0.616290
    136 C45        -6.2990   -0.0800    1.7350 c3        1 MOL     -0.362472
    137 H62        -4.0100   -0.1980    1.7560 hn        1 MOL      0.252979
    138 H63        -5.9620   -1.7190    0.4110 h1        1 MOL      0.104232
    139 H64        -6.4200   -0.5710    2.6930 hc        1 MOL      0.114416
    140 H65        -5.9110    0.9380    1.8200 hc        1 MOL      0.114416
    141 H66        -7.3220    0.0190    1.3720 hc        1 MOL      0.114416
    142 N13        -6.6570   -0.1570   -1.6050 n         1 MOL     -0.544078
    143 C46        -7.8700   -1.0510   -1.4090 c3        1 MOL      0.179933
    144 C47        -9.1460   -0.5440   -2.1640 c         1 MOL      0.368444
    145 O19        -8.9320   -0.0750   -3.2650 o         1 MOL     -0.507304
    146 C48        -7.5300   -2.4320   -2.0020 c3        1 MOL     -0.290735
    147 H67        -6.6720    0.4710   -2.3850 hn        1 MOL      0.319323
    148 H68        -8.0610   -1.2080   -0.3490 h1        1 MOL     -0.004263
    149 H69        -8.3670   -3.0860   -1.7640 hc        1 MOL      0.086812
    150 H70        -7.3890   -2.3320   -3.0740 hc        1 MOL      0.086812
    151 H71        -6.6540   -2.9210   -1.5730 hc        1 MOL      0.086812
    152 N14       -10.3780   -0.6750   -1.6980 n         1 MOL     -0.069896
    153 C49       -10.6860   -1.1530   -0.3840 c3        1 MOL     -0.515700
    154 C50       -10.3000   -0.1090    0.7010 c         1 MOL      0.612001
    155 O20        -9.9190   -0.4680    1.8180 o         1 MOL     -0.543769
    156 C51       -12.1620   -1.4900   -0.2980 c3        1 MOL      0.060591
    157 C52       -13.2390   -0.3340   -0.3210 c3        1 MOL     -0.055880
    158 C53       -13.5790    0.1350   -1.7970 c         1 MOL      0.603447
    159 O21       -14.6910    0.6710   -1.8900 o         1 MOL     -0.625536
    160 O22       -12.9200   -0.1900   -2.8530 o         1 MOL     -0.625536
    161 H72       -11.0490   -0.2580   -2.3430 hn        1 MOL      0.162058
    162 H73       -10.2000   -2.1240   -0.2340 h1        1 MOL      0.206162
    163 H74       -12.3330   -2.0190    0.6420 hc        1 MOL      0.033306
    164 H75       -12.4710   -2.3200   -0.9320 hc        1 MOL      0.033306
    165 H76       -12.8620    0.5170    0.2430 hc        1 MOL      0.007335
    166 H77       -14.1650   -0.6240    0.1870 hc        1 MOL      0.007335
    167 N15       -10.1790    1.2260    0.3710 n         1 MOL     -0.282409
    168 C54        -9.5020    2.2300    1.2400 c3        1 MOL     -0.258158
    169 H78       -10.0750    3.1570    1.2380 h1        1 MOL      0.110430
    170 H79        -9.4380    1.8450    2.2580 h1        1 MOL      0.110430
    171 H80        -8.4980    2.4220    0.8610 h1        1 MOL      0.110430
    172 H81       -10.5100    1.5270   -0.5290 hn        1 MOL      0.264384
    173 Ca1         2.3300    0.5700   -0.8540 Ca        1 MOL      1.728121
    174 O23         0.1450    1.9880   -1.3160 oh        1 MOL     -0.904321
    175 O24         2.7160    1.9970   -3.0330 oh        1 MOL     -0.904321
    176 H82        -0.8100    1.8640   -1.2520 ho        1 MOL      0.443554
    177 H83         3.0450    1.2330   -3.4930 ho        1 MOL      0.443554
    178 H84         0.2540    2.8640   -1.6720 ho        1 MOL      0.443554
    179 H85         3.0210    2.7450   -3.5440 ho        1 MOL      0.443554
    180 O25         0.8000   -0.7080   -2.7610 oh        1 MOL     -0.904321
    181 H86        -0.1550   -0.6500   -2.6830 ho        1 MOL      0.443554
    182 H87         0.9420   -1.3080   -3.4900 ho        1 MOL      0.443554
@<TRIPOS>BOND
     1    1    2 1   
     2    1    4 1   
     3    1    5 1   
     4    1    6 1   
     5    2    3 2   
     6    2    7 1   
     7    7    8 1   
     8    7   15 1   
     9    8    9 1   
    10    8   11 1   
    11    8   16 1   
    12    9   10 2   
    13    9   19 1   
    14   11   12 1   
    15   11   17 1   
    16   11   18 1   
    17   12   13 1   
    18   12   14 1   
    19   19   20 1   
    20   19   28 1   
    21   20   21 1   
    22   20   23 1   
    23   20   29 1   
    24   21   22 2   
    25   21   41 1   
    26   23   24 1   
    27   23   30 1   
    28   23   31 1   
    29   24   25 1   
    30   24   32 1   
    31   24   33 1   
    32   25   26 1   
    33   25   34 1   
    34   25   35 1   
    35   26   27 1   
    36   26   36 1   
    37   26   37 1   
    38   27   38 1   
    39   27   39 1   
    40   27   40 1   
    41   41   42 1   
    42   41   49 1   
    43   42   43 1   
    44   42   45 1   
    45   42   50 1   
    46   43   44 2   
    47   43   53 1   
    48   45   46 1   
    49   45   51 1   
    50   45   52 1   
    51   46   47 1   
    52   46   48 1   
    53   53   54 1   
    54   53   57 1   
    55   54   55 1   
    56   54   58 1   
    57   54   59 1   
    58   55   56 2   
    59   55   60 1   
    60   60   61 1   
    61   60   68 1   
    62   61   62 1   
    63   61   64 1   
    64   61   69 1   
    65   62   63 2   
    66   62   74 1   
    67   64   65 1   
    68   64   70 1   
    69   64   71 1   
    70   65   66 1   
    71   65   67 2   
    72   66   72 1   
    73   66   73 1   
    74   74   75 1   
    75   74   78 1   
    76   75   76 1   
    77   75   79 1   
    78   75   80 1   
    79   76   77 2   
    80   76   81 1   
    81   81   82 1   
    82   81   93 1   
    83   82   83 1   
    84   82   85 1   
    85   82   94 1   
    86   83   84 2   
    87   83  102 1   
    88   85   86 1   
    89   85   95 1   
    90   85   96 1   
    91   86   87 ar  
    92   86   88 ar  
    93   87   89 ar  
    94   87   97 1   
    95   88   90 ar  
    96   88   98 1   
    97   89   91 ar  
    98   89   99 1   
    99   90   91 ar  
   100   90  100 1   
   101   91   92 1   
   102   92  101 1   
   103  102  103 1   
   104  102  110 1   
   105  103  104 1   
   106  103  106 1   
   107  103  111 1   
   108  104  105 2   
   109  104  121 1   
   110  106  107 1   
   111  106  108 1   
   112  106  112 1   
   113  107  109 1   
   114  107  113 1   
   115  107  114 1   
   116  108  115 1   
   117  108  116 1   
   118  108  117 1   
   119  109  118 1   
   120  109  119 1   
   121  109  120 1   
   122  121  122 1   
   123  121  127 1   
   124  122  123 1   
   125  122  125 1   
   126  122  128 1   
   127  123  124 2   
   128  123  132 1   
   129  125  126 1   
   130  125  129 1   
   131  125  130 1   
   132  126  131 1   
   133  132  133 1   
   134  132  137 1   
   135  133  134 1   
   136  133  136 1   
   137  133  138 1   
   138  134  135 2   
   139  134  142 1   
   140  136  139 1   
   141  136  140 1   
   142  136  141 1   
   143  142  143 1   
   144  142  147 1   
   145  143  144 1   
   146  143  146 1   
   147  143  148 1   
   148  144  145 2   
   149  144  152 1   
   150  146  149 1   
   151  146  150 1   
   152  146  151 1   
   153  152  153 1   
   154  152  161 1   
   155  153  154 1   
   156  153  156 1   
   157  153  162 1   
   158  154  155 2   
   159  154  167 1   
   160  156  157 1   
   161  156  163 1   
   162  156  164 1   
   163  157  158 1   
   164  157  165 1   
   165  157  166 1   
   166  158  159 1   
   167  158  160 1   
   168  167  168 1   
   169  167  172 1   
   170  168  169 1   
   171  168  170 1   
   172  168  171 1   
   173  174  176 1   
   174  174  178 1   
   175  175  177 1   
   176  175  179 1   
   177  180  181 1   
   178  180  182 1   
@<TRIPOS>SUBSTRUCTURE
     1 MOL         1 TEMP              0 ****  ****    0 ROOT
