@<TRIPOS>MOLECULE
MOL
  181   177     1     0     0
SMALL
resp


@<TRIPOS>ATOM
      1 C1          8.0790    7.1910   -2.1930 c3        1 MOL     -0.326130
      2 C2          6.8740    6.4590   -1.5120 c         1 MOL      0.633435
      3 O1          5.8320    7.0970   -1.3480 o         1 MOL     -0.558192
      4 H1          8.1100    8.2270   -1.8570 hc        1 MOL      0.085980
      5 H2          9.0080    6.6930   -1.9210 hc        1 MOL      0.085980
      6 H3          7.9550    7.1640   -3.2760 hc        1 MOL      0.085980
      7 N1          6.9210    5.1660   -1.0780 n         1 MOL     -0.527297
      8 C3          7.9680    4.1410   -1.2230 c3        1 MOL      0.123686
      9 C4          8.5240    3.5570    0.1520 c         1 MOL      0.315019
     10 O2          9.4860    2.6790    0.1320 o         1 MOL     -0.531177
     11 C5          7.3810    3.0510   -2.0990 c3        1 MOL     -0.051901
     12 C6          6.0750    2.4000   -1.5880 c         1 MOL      0.701312
     13 O3          5.7060    2.3570   -0.3840 o         1 MOL     -0.736492
     14 O4          5.2900    1.9260   -2.4210 o         1 MOL     -0.736492
     15 H4          6.0730    4.9840   -0.5530 hn        1 MOL      0.280511
     16 H5          8.7770    4.5390   -1.8200 h1        1 MOL      0.085641
     17 H6          8.1680    2.3560   -2.3760 hc        1 MOL      0.028449
     18 H7          7.1540    3.6330   -2.9900 hc        1 MOL      0.028449
     19 N2          7.9640    4.0130    1.2600 n         1 MOL     -0.317469
     20 C7          8.2570    3.4670    2.5500 c3        1 MOL      0.151539
     21 C8          8.0400    1.9410    2.6990 c         1 MOL      0.262845
     22 O5          8.5460    1.3510    3.6740 o         1 MOL     -0.523968
     23 C9          7.3660    4.1820    3.5700 c3        1 MOL     -0.370780
     24 H8          7.2550    4.7210    1.2010 hn        1 MOL      0.269390
     25 H9          9.3080    3.6450    2.7870 h1        1 MOL      0.059920
     26 H10         6.3250    4.1040    3.2520 hc        1 MOL      0.114832
     27 H11         7.5120    3.6990    4.5360 hc        1 MOL      0.114832
     28 H12         7.6240    5.2400    3.5710 hc        1 MOL      0.114832
     29 N3          7.2780    1.3110    1.8190 n         1 MOL      0.234124
     30 C10         7.0790   -0.1230    1.6860 c3        1 MOL     -0.317059
     31 C11         6.9550   -0.5450    0.2210 c         1 MOL      0.480373
     32 O6          5.8810   -0.5010   -0.3450 o         1 MOL     -0.482298
     33 C12         5.8820   -0.7030    2.4200 c3        1 MOL      0.291323
     34 C13         4.7510    0.2710    2.7750 c         1 MOL      0.562154
     35 O7          4.0470    0.7690    1.8430 o         1 MOL     -0.680122
     36 O8          4.5250    0.5830    3.9700 o         1 MOL     -0.680122
     37 H13         6.8170    1.8740    1.1270 hn        1 MOL      0.033978
     38 H14         7.9490   -0.6400    2.0830 h1        1 MOL      0.067764
     39 H15         6.2320   -1.1210    3.3590 hc        1 MOL     -0.071558
     40 H16         5.4360   -1.4840    1.8020 hc        1 MOL     -0.071558
     41 N4          8.0120   -1.0520   -0.3720 n         1 MOL     -0.309328
     42 C14         8.2930   -0.9630   -1.8230 c3        1 MOL     -0.392266
     43 C15         7.6580   -2.0340   -2.7680 c         1 MOL      0.626419
     44 O9          7.8420   -2.0220   -3.9270 o         1 MOL     -0.530569
     45 H17         8.8070   -1.1320    0.2390 hn        1 MOL      0.272400
     46 H18         9.3650   -1.0780   -2.0180 h1        1 MOL      0.180152
     47 H19         7.8970   -0.0020   -2.1400 h1        1 MOL      0.180152
     48 N5          6.9290   -2.9220   -2.1400 n         1 MOL     -0.279971
     49 C16         6.0280   -3.8190   -2.8250 c3        1 MOL      0.008944
     50 C17         4.5950   -3.8200   -2.3270 c         1 MOL      0.574171
     51 O10         3.6770   -3.9420   -3.0800 o         1 MOL     -0.525023
     52 C18         6.5500   -5.2830   -2.7780 c3        1 MOL     -0.207578
     53 C19         7.9620   -5.6160   -3.2360 c         1 MOL      0.631654
     54 N6          8.8530   -6.1400   -2.3980 n         1 MOL     -0.767650
     55 O11         8.3570   -5.5240   -4.4050 o         1 MOL     -0.527188
     56 H20         6.7840   -2.7790   -1.1470 hn        1 MOL      0.112135
     57 H21         6.0760   -3.5780   -3.8920 h1        1 MOL      0.098635
     58 H22         5.8140   -5.8930   -3.3000 hc        1 MOL      0.045836
     59 H23         6.4570   -5.6590   -1.7620 hc        1 MOL      0.045836
     60 H24         8.5550   -6.3130   -1.4480 hn        1 MOL      0.357331
     61 H25         9.6340   -6.5830   -2.8580 hn        1 MOL      0.357331
     62 N7          4.4160   -3.7280   -0.9970 n         1 MOL     -0.466774
     63 C20         3.1290   -3.8180   -0.3660 c3        1 MOL      0.012014
     64 C21         2.6270   -2.4800    0.3350 c         1 MOL      0.846433
     65 O12         3.1150   -1.4590    0.0560 o         1 MOL     -0.773328
     66 H26         5.2600   -3.6680   -0.4540 hn        1 MOL      0.340287
     67 H27         3.1780   -4.6450    0.3530 h1        1 MOL      0.072164
     68 H28         2.4480   -4.1080   -1.1640 h1        1 MOL      0.072164
     69 N8          1.6720   -2.5740    1.2690 n         1 MOL     -0.620827
     70 C22         1.0880   -3.6260    2.0600 c3        1 MOL      0.046218
     71 C23        -0.3600   -3.2460    2.3430 c         1 MOL      0.542082
     72 O13        -1.2800   -4.0460    2.2470 o         1 MOL     -0.563665
     73 C24         1.8180   -3.8060    3.4280 c3        1 MOL      0.268591
     74 C25         3.2560   -4.2380    3.2870 c3        1 MOL     -0.135102
     75 O14         1.6820   -2.6230    4.1600 oh        1 MOL     -0.467914
     76 H29         1.4090   -1.6950    1.6970 hn        1 MOL      0.314839
     77 H30         1.0750   -4.5840    1.5400 h1        1 MOL      0.055754
     78 H31         1.2750   -4.6030    3.9310 h1        1 MOL     -0.021693
     79 H32         2.1980   -2.7390    4.9630 ho        1 MOL      0.365577
     80 H33         4.0120   -3.5510    2.9190 hc        1 MOL      0.016588
     81 H34         3.5870   -4.5400    4.2830 hc        1 MOL      0.016588
     82 H35         3.3460   -5.1840    2.7540 hc        1 MOL      0.016588
     83 N9         -0.7170   -1.9850    2.6550 n         1 MOL     -0.438575
     84 C26        -2.1060   -1.5330    2.7490 c3        1 MOL      0.141414
     85 C27        -2.3470   -0.6270    1.4560 c         1 MOL      0.529225
     86 O15        -1.5180    0.1400    1.0410 o         1 MOL     -0.583725
     87 C28        -2.1870   -0.6860    4.0460 c3        1 MOL      0.067684
     88 C29        -1.6750   -1.4090    5.3190 c3        1 MOL      0.110133
     89 C30        -3.5640   -0.0910    4.4470 c3        1 MOL     -0.202840
     90 C31        -2.3690   -2.6530    5.8360 c3        1 MOL     -0.195482
     91 H36        -0.0030   -1.3090    2.8570 hn        1 MOL      0.215268
     92 H37        -2.8190   -2.3640    2.7680 h1        1 MOL      0.152612
     93 H38        -1.4760    0.1350    3.9560 hc        1 MOL      0.008216
     94 H39        -1.6050   -0.6880    6.1340 hc        1 MOL     -0.027506
     95 H40        -0.6120   -1.6610    5.2580 hc        1 MOL     -0.027506
     96 H41        -4.2050   -0.9520    4.6490 hc        1 MOL      0.059583
     97 H42        -3.4750    0.6260    5.2590 hc        1 MOL      0.059583
     98 H43        -3.8440    0.5100    3.5920 hc        1 MOL      0.059583
     99 H44        -2.8060   -3.2890    5.0710 hc        1 MOL      0.028911
    100 H45        -1.6000   -3.2140    6.3810 hc        1 MOL      0.028911
    101 H46        -3.1580   -2.3770    6.5420 hc        1 MOL      0.028911
    102 N10        -3.4770   -0.6960    0.7310 n         1 MOL     -0.410519
    103 C32        -4.6220   -1.5730    0.9650 c3        1 MOL      0.142896
    104 C33        -5.9080   -1.0460    0.3110 c         1 MOL      0.654566
    105 O16        -5.9070   -0.3080   -0.7100 o         1 MOL     -0.534483
    106 C34        -4.3260   -3.0350    0.4450 c3        1 MOL     -0.211003
    107 C35        -3.6840   -3.0980   -0.9330 c         1 MOL      0.758089
    108 O17        -3.4100   -4.3210   -1.3020 o         1 MOL     -0.745818
    109 O18        -3.4920   -2.1520   -1.7220 o         1 MOL     -0.745818
    110 H47        -3.6450    0.0840    0.1120 hn        1 MOL      0.314593
    111 H48        -4.7950   -1.6310    2.0490 h1        1 MOL     -0.051905
    112 H49        -5.2320   -3.6310    0.4390 hc        1 MOL      0.022768
    113 H50        -3.6800   -3.5590    1.1530 hc        1 MOL      0.022768
    114 N11        -7.0870   -1.4080    0.8670 n         1 MOL     -0.828799
    115 C36        -8.3800   -1.0240    0.3690 c3        1 MOL      0.702542
    116 C37        -9.0000    0.1780    1.1510 c         1 MOL      0.156428
    117 O19        -8.8490    0.2250    2.4050 o         1 MOL     -0.481373
    118 C38        -9.3160   -2.2780    0.3040 c3        1 MOL     -0.232597
    119 C39        -9.9790   -2.5020   -1.1060 ca        1 MOL      0.143103
    120 C40       -11.3930   -2.4490   -1.1210 ca        1 MOL     -0.237393
    121 C41        -9.1780   -2.7390   -2.2050 ca        1 MOL     -0.237393
    122 C42       -12.0370   -2.6980   -2.3600 ca        1 MOL     -0.015990
    123 C43        -9.8360   -3.1050   -3.4510 ca        1 MOL     -0.015990
    124 C44       -11.2590   -2.9750   -3.4960 ca        1 MOL     -0.249547
    125 H51        -7.0230   -2.1120    1.5820 hn        1 MOL      0.340031
    126 H52        -8.2520   -0.7580   -0.6780 h1        1 MOL      0.088197
    127 H53       -10.0970   -2.1400    1.0460 hc        1 MOL      0.038788
    128 H54        -8.8200   -3.1660    0.7070 hc        1 MOL      0.038788
    129 H55       -11.9510   -2.2360   -0.2230 ha        1 MOL      0.143271
    130 H56        -8.0990   -2.6360   -2.1650 ha        1 MOL      0.143271
    131 H57       -13.1170   -2.7870   -2.4250 ha        1 MOL      0.093159
    132 H58        -9.2840   -3.2280   -4.3730 ha        1 MOL      0.093159
    133 H59       -11.7380   -3.2420   -4.4250 ha        1 MOL      0.117665
    134 N12        -9.7750    1.0590    0.5420 n         1 MOL     -0.013584
    135 C45       -10.0170    1.0920   -0.9480 c3        1 MOL     -0.053270
    136 C46        -8.8250    1.7030   -1.6890 c         1 MOL      0.434903
    137 O20        -8.4590    1.2490   -2.7900 o         1 MOL     -0.528909
    138 C47       -11.2560    1.9440   -1.0240 c3        1 MOL     -0.141542
    139 C48       -11.1450    2.9360    0.0480 c3        1 MOL      0.236056
    140 C49       -10.5410    2.1190    1.2330 c3        1 MOL     -0.503394
    141 H60       -10.2560    0.1170   -1.3650 h1        1 MOL      0.064867
    142 H61       -11.2410    2.4540   -1.9870 hc        1 MOL      0.032665
    143 H62       -12.1060    1.2880   -0.8450 hc        1 MOL      0.032665
    144 H63       -10.4770    3.7280   -0.3000 hc        1 MOL     -0.015365
    145 H64       -12.0780    3.4360    0.3010 hc        1 MOL     -0.015365
    146 H65        -9.8730    2.6220    1.9240 h1        1 MOL      0.183042
    147 H66       -11.2650    1.6010    1.8660 h1        1 MOL      0.183042
    148 N13        -8.1500    2.6470   -1.0030 n         1 MOL     -0.335258
    149 C50        -6.8310    3.2270   -1.3920 c3        1 MOL      0.211824
    150 C51        -7.1020    4.4500   -2.2790 c         1 MOL      0.340005
    151 O21        -7.3200    5.5100   -1.7190 o         1 MOL     -0.548415
    152 C52        -6.1180    3.6130   -0.1520 c3        1 MOL      0.166250
    153 C53        -5.6920    2.5430    0.8000 c3        1 MOL     -0.183606
    154 C54        -5.4220    3.0920    2.1690 c         1 MOL      0.661357
    155 O22        -6.2190    2.9180    3.1670 o         1 MOL     -0.714101
    156 O23        -4.4090    3.7860    2.2750 o         1 MOL     -0.714101
    157 H67        -8.4660    2.9210   -0.0850 hn        1 MOL      0.297808
    158 H68        -6.2360    2.4620   -1.8970 h1        1 MOL      0.038169
    159 H69        -6.8020    4.2660    0.3890 hc        1 MOL     -0.028272
    160 H70        -5.2110    4.1810   -0.3820 hc        1 MOL     -0.028272
    161 H71        -4.8580    2.0140    0.3310 hc        1 MOL     -0.007209
    162 H72        -6.5520    1.8750    0.9310 hc        1 MOL     -0.007209
    163 N14        -7.0640    4.4020   -3.6450 n         1 MOL     -0.283199
    164 C55        -6.5200    3.3600   -4.4660 c3        1 MOL     -0.218528
    165 H73        -7.0930    2.4440   -4.3160 h1        1 MOL      0.097850
    166 H74        -6.5740    3.6550   -5.5130 h1        1 MOL      0.097850
    167 H75        -5.4800    3.1850   -4.1910 h1        1 MOL      0.097850
    168 H76        -7.5100    5.2000   -4.0770 hn        1 MOL      0.249844
    169 Ca1         3.5810    0.9850   -0.7370 Ca        1 MOL      1.705302
    170 O24         0.7840    0.4190   -0.6670 oh        1 MOL     -0.780302
    171 H77         0.1920    0.5170    0.0800 ho        1 MOL      0.397733
    172 H78         0.3830   -0.2510   -1.2080 ho        1 MOL      0.397733
    173 O25         2.4860    3.2320    0.4910 oh        1 MOL     -0.780302
    174 H79         3.0280    3.0610    1.2620 ho        1 MOL      0.397733
    175 H80         1.8240    3.8550    0.8040 ho        1 MOL      0.397733
    176 O26         3.5920   -0.5900   -2.8370 oh        1 MOL     -0.780302
    177 H81         2.8530   -1.1880   -2.9700 ho        1 MOL      0.397733
    178 H82         4.1710   -0.7600   -3.5820 ho        1 MOL      0.397733
    179 O27         2.3180    2.3310   -2.7980 oh        1 MOL     -0.780302
    180 H83         2.6120    2.0730   -3.6730 ho        1 MOL      0.397733
    181 H84         1.5780    2.9100   -2.9530 ho        1 MOL      0.397733
@<TRIPOS>BOND
     1    1    2 1   
     2    1    4 1   
     3    1    5 1   
     4    1    6 1   
     5    2    3 2   
     6    2    7 1   
     7    7    8 1   
     8    7   15 1   
     9    8    9 1   
    10    8   11 1   
    11    8   16 1   
    12    9   10 2   
    13    9   19 1   
    14   11   12 1   
    15   11   17 1   
    16   11   18 1   
    17   12   13 1   
    18   12   14 1   
    19   19   20 1   
    20   19   24 1   
    21   20   21 1   
    22   20   23 1   
    23   20   25 1   
    24   21   22 2   
    25   21   29 1   
    26   23   26 1   
    27   23   27 1   
    28   23   28 1   
    29   29   30 1   
    30   29   37 1   
    31   30   31 1   
    32   30   33 1   
    33   30   38 1   
    34   31   32 2   
    35   31   41 1   
    36   33   34 1   
    37   33   39 1   
    38   33   40 1   
    39   34   35 1   
    40   34   36 1   
    41   41   42 1   
    42   41   45 1   
    43   42   43 1   
    44   42   46 1   
    45   42   47 1   
    46   43   44 2   
    47   43   48 1   
    48   48   49 1   
    49   48   56 1   
    50   49   50 1   
    51   49   52 1   
    52   49   57 1   
    53   50   51 2   
    54   50   62 1   
    55   52   53 1   
    56   52   58 1   
    57   52   59 1   
    58   53   54 1   
    59   53   55 2   
    60   54   60 1   
    61   54   61 1   
    62   62   63 1   
    63   62   66 1   
    64   63   64 1   
    65   63   67 1   
    66   63   68 1   
    67   64   65 2   
    68   64   69 1   
    69   69   70 1   
    70   69   76 1   
    71   70   71 1   
    72   70   73 1   
    73   70   77 1   
    74   71   72 2   
    75   71   83 1   
    76   73   74 1   
    77   73   75 1   
    78   73   78 1   
    79   74   80 1   
    80   74   81 1   
    81   74   82 1   
    82   75   79 1   
    83   83   84 1   
    84   83   91 1   
    85   84   85 1   
    86   84   87 1   
    87   84   92 1   
    88   85   86 2   
    89   85  102 1   
    90   87   88 1   
    91   87   89 1   
    92   87   93 1   
    93   88   90 1   
    94   88   94 1   
    95   88   95 1   
    96   89   96 1   
    97   89   97 1   
    98   89   98 1   
    99   90   99 1   
   100   90  100 1   
   101   90  101 1   
   102  102  103 1   
   103  102  110 1   
   104  103  104 1   
   105  103  106 1   
   106  103  111 1   
   107  104  105 2   
   108  104  114 1   
   109  106  107 1   
   110  106  112 1   
   111  106  113 1   
   112  107  108 1   
   113  107  109 1   
   114  114  115 1   
   115  114  125 1   
   116  115  116 1   
   117  115  118 1   
   118  115  126 1   
   119  116  117 2   
   120  116  134 1   
   121  118  119 1   
   122  118  127 1   
   123  118  128 1   
   124  119  120 ar  
   125  119  121 ar  
   126  120  122 ar  
   127  120  129 1   
   128  121  123 ar  
   129  121  130 1   
   130  122  124 ar  
   131  122  131 1   
   132  123  124 ar  
   133  123  132 1   
   134  124  133 1   
   135  134  135 1   
   136  134  140 1   
   137  135  136 1   
   138  135  138 1   
   139  135  141 1   
   140  136  137 2   
   141  136  148 1   
   142  138  139 1   
   143  138  142 1   
   144  138  143 1   
   145  139  140 1   
   146  139  144 1   
   147  139  145 1   
   148  140  146 1   
   149  140  147 1   
   150  148  149 1   
   151  148  157 1   
   152  149  150 1   
   153  149  152 1   
   154  149  158 1   
   155  150  151 2   
   156  150  163 1   
   157  152  153 1   
   158  152  159 1   
   159  152  160 1   
   160  153  154 1   
   161  153  161 1   
   162  153  162 1   
   163  154  155 1   
   164  154  156 1   
   165  163  164 1   
   166  163  168 1   
   167  164  165 1   
   168  164  166 1   
   169  164  167 1   
   170  170  171 1   
   171  170  172 1   
   172  173  174 1   
   173  173  175 1   
   174  176  177 1   
   175  176  178 1   
   176  179  180 1   
   177  179  181 1   
@<TRIPOS>SUBSTRUCTURE
     1 MOL         1 TEMP              0 ****  ****    0 ROOT
