@<TRIPOS>MOLECULE
MOL
  186   183     1     0     0
SMALL
resp


@<TRIPOS>ATOM
      1 C1          4.2320    4.1180   -3.5430 c3        1 MOL     -0.478340
      2 C2          5.0210    3.3180   -2.4570 c         1 MOL      0.840347
      3 O1          4.5790    3.0660   -1.3130 o         1 MOL     -0.624559
      4 H1          3.4610    3.4800   -3.9750 hc        1 MOL      0.117490
      5 H2          3.7670    4.9910   -3.0860 hc        1 MOL      0.117490
      6 H3          4.9170    4.4410   -4.3270 hc        1 MOL      0.117490
      7 N1          6.1640    2.7960   -2.8170 n         1 MOL     -0.701483
      8 C3          6.9470    1.6070   -2.1310 c3        1 MOL      0.227326
      9 C4          6.0420    0.4320   -1.8120 c         1 MOL      0.231479
     10 O2          5.7360    0.1530   -0.6520 o         1 MOL     -0.553919
     11 C5          7.9580    1.9420   -1.0040 c3        1 MOL     -0.038813
     12 C6          7.5050    3.0030   -0.0190 c         1 MOL      0.722551
     13 O3          6.6990    2.6990    0.8700 o         1 MOL     -0.736948
     14 O4          7.8950    4.1650   -0.1300 o         1 MOL     -0.736948
     15 H4          6.6150    2.9680   -3.7010 hn        1 MOL      0.317481
     16 H5          7.6170    1.2310   -2.8930 h1        1 MOL      0.044078
     17 H6          8.9070    2.3000   -1.3960 hc        1 MOL      0.003851
     18 H7          8.1580    1.0040   -0.4790 hc        1 MOL      0.003851
     19 N2          5.6470   -0.4050   -2.7810 n         1 MOL     -0.251347
     20 C7          4.8560   -1.6470   -2.8290 c3        1 MOL      0.158851
     21 C8          5.4390   -2.7990   -2.0340 c         1 MOL      0.407309
     22 O5          5.7180   -3.8330   -2.6030 o         1 MOL     -0.575237
     23 C9          3.3170   -1.3570   -2.5280 c3        1 MOL      0.052864
     24 C10         2.4300   -2.6010   -2.3720 c3        1 MOL     -0.026492
     25 C11         2.7920   -0.1800   -3.3740 c3        1 MOL     -0.446714
     26 C12         2.3580   -3.4940   -3.6380 c3        1 MOL     -0.259707
     27 H8          6.0110   -0.1760   -3.7010 hn        1 MOL      0.199229
     28 H9          4.8890   -2.0100   -3.8570 h1        1 MOL      0.008621
     29 H10         3.2110   -0.9100   -1.5370 hc        1 MOL      0.111540
     30 H11         1.4280   -2.1990   -2.2300 hc        1 MOL      0.068332
     31 H12         2.7270   -3.2350   -1.5430 hc        1 MOL      0.068332
     32 H13         1.7320   -0.1030   -3.1030 hc        1 MOL      0.108728
     33 H14         3.2140    0.7790   -3.0870 hc        1 MOL      0.108728
     34 H15         2.8190   -0.2800   -4.4630 hc        1 MOL      0.108728
     35 H16         3.3300   -3.9160   -3.9130 hc        1 MOL      0.047696
     36 H17         1.7730   -4.3670   -3.3530 hc        1 MOL      0.047696
     37 H18         1.9060   -3.0080   -4.5030 hc        1 MOL      0.047696
     38 N3          5.7140   -2.6320   -0.7080 n         1 MOL     -0.212897
     39 C13         6.6730   -3.4760    0.0310 c3        1 MOL      0.182375
     40 C14         6.1590   -4.7850    0.6650 c         1 MOL      0.526133
     41 O6          6.9210   -5.7440    0.6810 o         1 MOL     -0.576941
     42 C15         7.5700   -2.6900    1.0260 c3        1 MOL     -0.285056
     43 C16         8.6130   -1.7750    0.3510 c         1 MOL      0.718624
     44 O7          9.4480   -1.2010    1.1180 o         1 MOL     -0.725835
     45 O8          8.6110   -1.5980   -0.8780 o         1 MOL     -0.725835
     46 H19         5.3810   -1.7880   -0.2800 hn        1 MOL      0.287559
     47 H20         7.3290   -3.9090   -0.7220 h1        1 MOL      0.052223
     48 H21         8.0770   -3.2670    1.7930 hc        1 MOL      0.061013
     49 H22         6.8420   -2.0970    1.6010 hc        1 MOL      0.061013
     50 N4          4.8860   -4.9850    1.1250 n         1 MOL     -0.567338
     51 C17         3.8990   -3.9600    1.5240 c3        1 MOL      0.154209
     52 C18         4.2830   -3.2060    2.8090 c         1 MOL      0.430084
     53 O9          5.3430   -3.6130    3.3380 o         1 MOL     -0.517918
     54 H23         4.5870   -5.9330    1.2580 hn        1 MOL      0.300336
     55 H24         2.9010   -4.3700    1.7220 h1        1 MOL      0.006943
     56 H25         3.6440   -3.2990    0.7060 h1        1 MOL      0.006943
     57 N5          3.5710   -2.2710    3.4010 n         1 MOL     -0.374719
     58 C19         2.2390   -1.7850    3.0830 c3        1 MOL      0.063338
     59 C20         2.2800   -1.0670    1.7050 c         1 MOL      0.173931
     60 O10         3.3240   -0.7250    1.1370 o         1 MOL     -0.531691
     61 C21         1.9400   -0.6360    4.0680 c3        1 MOL     -0.315267
     62 C22         3.0280    0.3640    4.0570 c         1 MOL      0.889854
     63 O11         4.0260    0.1530    4.7850 o         1 MOL     -0.725514
     64 O12         2.9000    1.3440    3.3370 o         1 MOL     -0.725514
     65 H26         4.1370   -1.8240    4.1220 hn        1 MOL      0.250901
     66 H27         1.4340   -2.5270    3.1130 h1        1 MOL      0.075656
     67 H28         1.8530   -0.9870    5.0960 hc        1 MOL      0.073839
     68 H29         0.9520   -0.2480    3.8020 hc        1 MOL      0.073839
     69 N6          1.1650   -0.7890    1.0170 n         1 MOL     -0.053341
     70 C23        -0.2060   -1.1420    1.4010 c3        1 MOL     -0.014204
     71 C24        -0.6200   -2.4540    0.7630 c         1 MOL      0.585324
     72 O13         0.2530   -3.2500    0.3200 o         1 MOL     -0.526538
     73 H30         1.2420   -0.2760    0.1440 hn        1 MOL      0.078556
     74 H31        -0.8750   -0.3360    1.0940 h1        1 MOL      0.071514
     75 H32        -0.4740   -1.1900    2.4590 h1        1 MOL      0.071514
     76 N7         -1.8700   -2.7600    0.8390 n         1 MOL     -0.492602
     77 C25        -2.4760   -3.9860    0.3640 c3        1 MOL      0.029395
     78 C26        -3.3260   -3.8940   -0.9840 c         1 MOL      0.423261
     79 O14        -3.5470   -4.9430   -1.6810 o         1 MOL     -0.522434
     80 C27        -3.2700   -4.7610    1.4550 c3        1 MOL      0.037787
     81 C28        -4.3650   -3.9130    2.1290 c3        1 MOL     -0.462042
     82 C29        -5.4830   -3.5920    1.1770 c         1 MOL      0.431685
     83 N8         -6.3100   -4.5540    0.7020 n         1 MOL     -0.697729
     84 O15        -5.6220   -2.5000    0.7210 o         1 MOL     -0.334914
     85 H33        -2.5010   -2.0420    1.1560 hn        1 MOL      0.248863
     86 H34        -1.6450   -4.6170    0.0510 h1        1 MOL      0.112606
     87 H35        -2.7170   -5.1420    2.3220 hc        1 MOL      0.029252
     88 H36        -3.6720   -5.6260    0.9210 hc        1 MOL      0.029252
     89 H37        -4.0110   -2.9540    2.5070 hc        1 MOL      0.190816
     90 H38        -4.7130   -4.5370    2.9450 hc        1 MOL      0.190816
     91 H39        -6.0490   -5.5000    0.9260 hn        1 MOL      0.341213
     92 H40        -7.0950   -4.3740    0.0880 hn        1 MOL      0.341213
     93 N9         -3.5700   -2.6600   -1.4920 n         1 MOL     -0.230465
     94 C30        -4.0300   -2.4350   -2.8920 c3        1 MOL     -0.063910
     95 C31        -5.3520   -1.6800   -3.0650 c         1 MOL      0.359710
     96 O16        -5.8250   -1.4870   -4.2160 o         1 MOL     -0.569385
     97 C32        -2.9410   -1.7620   -3.6690 c3        1 MOL      0.277683
     98 C33        -1.5250   -2.5220   -3.7490 c3        1 MOL     -0.238977
     99 C34        -2.5620   -0.2910   -3.2020 c3        1 MOL     -0.238977
    100 H41        -3.5220   -1.8410   -0.8950 hn        1 MOL      0.220357
    101 H42        -4.1800   -3.4120   -3.3530 h1        1 MOL      0.112696
    102 H43        -3.2390   -1.7080   -4.7120 hc        1 MOL     -0.022690
    103 H44        -1.7580   -3.4450   -4.2880 hc        1 MOL      0.050878
    104 H45        -0.8590   -1.9430   -4.3880 hc        1 MOL      0.050878
    105 H46        -1.1020   -2.7910   -2.7870 hc        1 MOL      0.050878
    106 H47        -1.7780    0.0970   -3.8690 hc        1 MOL      0.050878
    107 H48        -3.3620    0.4370   -3.3360 hc        1 MOL      0.050878
    108 H49        -1.9920   -0.3210   -2.2690 hc        1 MOL      0.050878
    109 N10        -6.0460   -1.3620   -1.9990 n         1 MOL     -0.186861
    110 C35        -7.3360   -0.6410   -2.0670 c3        1 MOL      0.181348
    111 C36        -7.2880    0.7680   -1.3860 c         1 MOL      0.456309
    112 O17        -8.0610    1.6550   -1.7250 o         1 MOL     -0.559735
    113 C37        -8.3880   -1.5100   -1.4490 c3        1 MOL     -0.027511
    114 C38        -8.3910   -2.8700   -2.0680 c         1 MOL      0.580634
    115 N11        -8.4480   -3.0650   -3.3670 n         1 MOL     -0.743928
    116 O18        -8.3260   -3.8690   -1.2870 o         1 MOL     -0.566854
    117 H50        -5.6710   -1.5720   -1.0830 hn        1 MOL      0.110672
    118 H51        -7.7420   -0.3670   -3.0420 h1        1 MOL      0.051621
    119 H52        -9.2680   -0.9540   -1.7640 hc        1 MOL     -0.004301
    120 H53        -8.3250   -1.4910   -0.3600 hc        1 MOL     -0.004301
    121 H54        -8.3130   -2.3910   -4.1060 hn        1 MOL      0.361220
    122 H55        -8.1110   -3.9630   -3.6740 hn        1 MOL      0.361220
    123 N12        -6.2390    1.0540   -0.6540 n         1 MOL     -0.484047
    124 C39        -6.0320    2.3930    0.0070 c3        1 MOL      0.389267
    125 C40        -4.6020    2.8740    0.1100 c         1 MOL      0.127866
    126 O19        -3.7110    2.0510   -0.0890 o         1 MOL     -0.336199
    127 C41        -6.7160    2.2470    1.3940 c3        1 MOL      0.006449
    128 C42        -6.6890    0.9210    2.1310 ca        1 MOL      0.214714
    129 C43        -7.8690    0.2280    2.2460 ca        1 MOL     -0.337347
    130 C44        -5.5140    0.4780    2.7750 ca        1 MOL     -0.337347
    131 C45        -7.9380   -0.9540    2.9510 ca        1 MOL     -0.046242
    132 C46        -5.6110   -0.7180    3.5210 ca        1 MOL     -0.046242
    133 C47        -6.7910   -1.5080    3.4910 ca        1 MOL      0.150841
    134 O20        -6.7990   -2.7190    4.1180 oh        1 MOL     -0.482724
    135 H56        -5.5640    0.3210   -0.4760 hn        1 MOL      0.193142
    136 H57        -6.6340    3.1650   -0.4600 h1        1 MOL      0.025915
    137 H58        -7.7490    2.5700    1.2430 hc        1 MOL     -0.014954
    138 H59        -6.3590    2.9540    2.1410 hc        1 MOL     -0.014954
    139 H60        -8.7400    0.5450    1.6960 ha        1 MOL      0.174641
    140 H61        -4.5790    1.0320    2.7910 ha        1 MOL      0.174641
    141 H62        -8.8670   -1.5060    2.9730 ha        1 MOL      0.083637
    142 H63        -4.7210   -1.1990    3.9110 ha        1 MOL      0.083637
    143 H64        -7.5910   -3.2380    3.9700 ho        1 MOL      0.364741
    144 N13        -4.4000    4.0930    0.6460 n         1 MOL     -0.322499
    145 C48        -3.2100    4.7710    1.0720 c3        1 MOL     -0.022060
    146 C49        -2.0300    4.9510    0.1150 c         1 MOL      0.150401
    147 O21        -1.2360    5.9070    0.2970 o         1 MOL     -0.466689
    148 C50        -2.6960    4.2840    2.4650 c3        1 MOL      0.050663
    149 C51        -3.6750    4.3900    3.6700 c3        1 MOL     -0.321662
    150 C52        -2.8830    4.4450    5.0200 c         1 MOL      0.698487
    151 O22        -2.3210    3.4180    5.4430 o         1 MOL     -0.710625
    152 O23        -2.8210    5.5280    5.6260 o         1 MOL     -0.710625
    153 H65        -5.1680    4.7280    0.5100 hn        1 MOL      0.248975
    154 H66        -3.6010    5.7770    1.2290 h1        1 MOL      0.106291
    155 H67        -1.7860    4.8380    2.6710 hc        1 MOL      0.077415
    156 H68        -2.3500    3.2530    2.3380 hc        1 MOL      0.077415
    157 H69        -4.3480    3.5380    3.6300 hc        1 MOL      0.048376
    158 H70        -4.2770    5.2970    3.6070 hc        1 MOL      0.048376
    159 N14        -1.7880    4.0450   -0.8190 n         1 MOL     -0.081001
    160 C53        -0.7210    4.1260   -1.8030 c3        1 MOL     -0.015859
    161 C54        -1.0190    5.1490   -2.8870 c         1 MOL      0.506961
    162 O24        -0.1000    5.9020   -3.2070 o         1 MOL     -0.538811
    163 C55        -0.2950    2.7450   -2.2960 c3        1 MOL     -0.105763
    164 C56         0.0490    1.7340   -1.2600 c3        1 MOL      0.451633
    165 C57         1.3860    2.0380   -0.5060 c         1 MOL      0.395222
    166 O25         1.3780    2.8170    0.4660 o         1 MOL     -0.596945
    167 O26         2.3550    1.2670   -0.7190 o         1 MOL     -0.596945
    168 H71        -2.4850    3.3200   -0.8460 hn        1 MOL      0.191378
    169 H72         0.1100    4.5780   -1.2560 h1        1 MOL      0.129610
    170 H73         0.4900    2.8970   -3.0440 hc        1 MOL     -0.004855
    171 H74        -1.2050    2.3850   -2.7740 hc        1 MOL     -0.004855
    172 H75         0.2460    0.8680   -1.8850 hc        1 MOL     -0.165617
    173 H76        -0.8290    1.5350   -0.6310 hc        1 MOL     -0.165617
    174 N15        -2.2580    5.2410   -3.3110 n         1 MOL     -0.244064
    175 C58        -2.7860    6.1870   -4.3210 c3        1 MOL     -0.337485
    176 H77        -3.6280    5.7300   -4.8410 h1        1 MOL      0.128017
    177 H78        -3.1170    7.1000   -3.8260 h1        1 MOL      0.128017
    178 H79        -2.0020    6.4260   -5.0390 h1        1 MOL      0.128017
    179 H80        -2.8670    4.5090   -2.9700 hn        1 MOL      0.215690
    180 Ca1         4.3140    1.6670    0.9260 Ca        1 MOL      1.841628
    181 O27         3.8430    4.0940    1.7970 oh        1 MOL     -0.932047
    182 H81         3.5990    4.3470    2.6810 ho        1 MOL      0.443099
    183 H82         3.4780    4.7760    1.2420 ho        1 MOL      0.443099
    184 O28         5.8800    0.5770    2.8100 oh        1 MOL     -0.932047
    185 H83         6.6240    0.0170    2.6270 ho        1 MOL      0.443099
    186 H84         5.6350    0.3720    3.7170 ho        1 MOL      0.443099
@<TRIPOS>BOND
     1    1    2 1   
     2    1    4 1   
     3    1    5 1   
     4    1    6 1   
     5    2    3 2   
     6    2    7 1   
     7    7    8 1   
     8    7   15 1   
     9    8    9 1   
    10    8   11 1   
    11    8   16 1   
    12    9   10 2   
    13    9   19 1   
    14   11   12 1   
    15   11   17 1   
    16   11   18 1   
    17   12   13 1   
    18   12   14 1   
    19   19   20 1   
    20   19   27 1   
    21   20   21 1   
    22   20   23 1   
    23   20   28 1   
    24   21   22 2   
    25   21   38 1   
    26   23   24 1   
    27   23   25 1   
    28   23   29 1   
    29   24   26 1   
    30   24   30 1   
    31   24   31 1   
    32   25   32 1   
    33   25   33 1   
    34   25   34 1   
    35   26   35 1   
    36   26   36 1   
    37   26   37 1   
    38   38   39 1   
    39   38   46 1   
    40   39   40 1   
    41   39   42 1   
    42   39   47 1   
    43   40   41 2   
    44   40   50 1   
    45   42   43 1   
    46   42   48 1   
    47   42   49 1   
    48   43   44 1   
    49   43   45 1   
    50   50   51 1   
    51   50   54 1   
    52   51   52 1   
    53   51   55 1   
    54   51   56 1   
    55   52   53 2   
    56   52   57 1   
    57   57   58 1   
    58   57   65 1   
    59   58   59 1   
    60   58   61 1   
    61   58   66 1   
    62   59   60 2   
    63   59   69 1   
    64   61   62 1   
    65   61   67 1   
    66   61   68 1   
    67   62   63 1   
    68   62   64 1   
    69   69   70 1   
    70   69   73 1   
    71   70   71 1   
    72   70   74 1   
    73   70   75 1   
    74   71   72 2   
    75   71   76 1   
    76   76   77 1   
    77   76   85 1   
    78   77   78 1   
    79   77   80 1   
    80   77   86 1   
    81   78   79 2   
    82   78   93 1   
    83   80   81 1   
    84   80   87 1   
    85   80   88 1   
    86   81   82 1   
    87   81   89 1   
    88   81   90 1   
    89   82   83 1   
    90   82   84 2   
    91   83   91 1   
    92   83   92 1   
    93   93   94 1   
    94   93  100 1   
    95   94   95 1   
    96   94   97 1   
    97   94  101 1   
    98   95   96 2   
    99   95  109 1   
   100   97   98 1   
   101   97   99 1   
   102   97  102 1   
   103   98  103 1   
   104   98  104 1   
   105   98  105 1   
   106   99  106 1   
   107   99  107 1   
   108   99  108 1   
   109  109  110 1   
   110  109  117 1   
   111  110  111 1   
   112  110  113 1   
   113  110  118 1   
   114  111  112 2   
   115  111  123 1   
   116  113  114 1   
   117  113  119 1   
   118  113  120 1   
   119  114  115 1   
   120  114  116 2   
   121  115  121 1   
   122  115  122 1   
   123  123  124 1   
   124  123  135 1   
   125  124  125 1   
   126  124  127 1   
   127  124  136 1   
   128  125  126 2   
   129  125  144 1   
   130  127  128 1   
   131  127  137 1   
   132  127  138 1   
   133  128  129 ar  
   134  128  130 ar  
   135  129  131 ar  
   136  129  139 1   
   137  130  132 ar  
   138  130  140 1   
   139  131  133 ar  
   140  131  141 1   
   141  132  133 ar  
   142  132  142 1   
   143  133  134 1   
   144  134  143 1   
   145  144  145 1   
   146  144  153 1   
   147  145  146 1   
   148  145  148 1   
   149  145  154 1   
   150  146  147 2   
   151  146  159 1   
   152  148  149 1   
   153  148  155 1   
   154  148  156 1   
   155  149  150 1   
   156  149  157 1   
   157  149  158 1   
   158  150  151 1   
   159  150  152 1   
   160  159  160 1   
   161  159  168 1   
   162  160  161 1   
   163  160  163 1   
   164  160  169 1   
   165  161  162 2   
   166  161  174 1   
   167  163  164 1   
   168  163  170 1   
   169  163  171 1   
   170  164  165 1   
   171  164  172 1   
   172  164  173 1   
   173  165  166 1   
   174  165  167 1   
   175  174  175 1   
   176  174  179 1   
   177  175  176 1   
   178  175  177 1   
   179  175  178 1   
   180  181  182 1   
   181  181  183 1   
   182  184  185 1   
   183  184  186 1   
@<TRIPOS>SUBSTRUCTURE
     1 MOL         1 TEMP              0 ****  ****    0 ROOT
