@<TRIPOS>MOLECULE
MOL
  192   187     1     0     0
SMALL
resp


@<TRIPOS>ATOM
      1 C1          5.2080    2.1910    6.1060 c3        1 MOL     -0.222071
      2 C2          4.7430    1.8080    4.6830 c         1 MOL      0.764582
      3 O1          4.1560    2.5980    3.9940 o         1 MOL     -0.613854
      4 H1          5.0110    1.3620    6.7860 hc        1 MOL      0.050047
      5 H2          6.2770    2.4050    6.0940 hc        1 MOL      0.050047
      6 H3          4.6640    3.0730    6.4410 hc        1 MOL      0.050047
      7 N1          4.9700    0.5890    4.2390 n         1 MOL     -0.671158
      8 C3          4.6840    0.0340    2.9070 c3        1 MOL      0.511562
      9 C4          3.2640    0.1840    2.3730 c         1 MOL     -0.045123
     10 O2          3.1420   -0.2330    1.1900 o         1 MOL     -0.200281
     11 C5          5.0170   -1.5020    2.9500 c3        1 MOL     -0.303290
     12 C6          6.3190   -1.9390    3.5770 c         1 MOL      0.737367
     13 O3          6.6890   -1.5510    4.6540 o         1 MOL     -0.660836
     14 O4          7.1550   -2.7060    2.9950 o         1 MOL     -0.660836
     15 H4          5.4870    0.0430    4.9290 hn        1 MOL      0.279096
     16 H5          5.3740    0.4960    2.2100 h1        1 MOL      0.041408
     17 H6          4.9330   -1.9670    1.9660 hc        1 MOL      0.027339
     18 H7          4.2790   -1.9750    3.5970 hc        1 MOL      0.027339
     19 N2          2.2810    0.7390    3.0440 n         1 MOL     -0.036111
     20 C7          0.8260    0.4640    2.5810 c3        1 MOL     -0.030955
     21 C8          0.2050    1.7340    1.9180 c         1 MOL      0.379310
     22 O5          0.1420    2.8110    2.5710 o         1 MOL     -0.532989
     23 C9          0.0820    0.1750    3.8400 c3        1 MOL     -0.398925
     24 C10         0.4820   -1.1310    4.5270 c3        1 MOL      0.325628
     25 C11        -0.3170   -1.2950    5.7560 c3        1 MOL     -0.183944
     26 C12         0.3380   -2.4060    6.6610 c3        1 MOL      0.203264
     27 N3         -0.4200   -2.7170    7.8960 n4        1 MOL     -0.512154
     28 H8          2.4410    1.2890    3.8800 hn        1 MOL      0.205234
     29 H9          0.8130   -0.3760    1.8770 h1        1 MOL      0.226965
     30 H10        -0.9890    0.0920    3.6530 hc        1 MOL      0.112972
     31 H11         0.2930    0.9310    4.5950 hc        1 MOL      0.112972
     32 H12         1.5320   -1.0550    4.7780 hc        1 MOL     -0.052466
     33 H13         0.4460   -1.9690    3.8320 hc        1 MOL     -0.052466
     34 H14        -1.3100   -1.6370    5.4800 hc        1 MOL      0.061941
     35 H15        -0.4720   -0.3670    6.3060 hc        1 MOL      0.061941
     36 H16         1.3200   -1.9950    6.8900 hx        1 MOL      0.027143
     37 H17         0.4920   -3.2910    6.0450 hx        1 MOL      0.027143
     38 H18         0.2580   -2.9540    8.6020 hn        1 MOL      0.372667
     39 H19        -0.8020   -1.8580    8.2450 hn        1 MOL      0.372667
     40 H20        -1.0970   -3.4500    7.7110 hn        1 MOL      0.372667
     41 N4         -0.3820    1.7370    0.7110 n         1 MOL      0.182101
     42 C13        -0.7390    0.5550   -0.1070 c3        1 MOL     -0.490020
     43 C14        -1.3730   -0.6480    0.6840 c         1 MOL      0.680727
     44 O6         -0.8870   -1.7710    0.6860 o         1 MOL     -0.603554
     45 C15         0.3030    0.2410   -1.2110 c3        1 MOL     -0.776898
     46 C16         0.5380    1.5380   -2.0740 c         1 MOL      0.988721
     47 O7          1.6100    1.6780   -2.7440 o         1 MOL     -0.718427
     48 O8         -0.3910    2.3800   -2.1350 o         1 MOL     -0.718427
     49 H21        -0.6690    2.6340    0.3540 hn        1 MOL      0.005052
     50 H22        -1.6650    0.8370   -0.6120 h1        1 MOL      0.037977
     51 H23        -0.1290   -0.5610   -1.8010 hc        1 MOL      0.276040
     52 H24         1.2170   -0.2030   -0.8140 hc        1 MOL      0.276040
     53 N5         -2.3920   -0.5190    1.4970 n         1 MOL     -0.130918
     54 C17        -3.2220    0.6420    1.7910 c3        1 MOL      0.042945
     55 C18        -4.3030    0.4310    2.8230 c         1 MOL      0.424786
     56 O9         -4.2930   -0.5910    3.5000 o         1 MOL     -0.537929
     57 H25        -2.5370   -1.3090    2.1060 hn        1 MOL      0.160912
     58 H26        -3.7570    0.8910    0.8730 h1        1 MOL      0.042803
     59 H27        -2.6190    1.5240    2.0140 h1        1 MOL      0.042803
     60 N6         -5.2760    1.3760    2.9630 n         1 MOL     -0.445923
     61 C19        -5.4760    2.5980    2.1990 c3        1 MOL      0.116969
     62 C20        -6.5000    2.3940    1.0930 c         1 MOL      0.453147
     63 O10        -7.3610    1.5510    1.3060 o         1 MOL     -0.458291
     64 C21        -5.8790    3.6770    3.2510 c3        1 MOL     -0.096062
     65 C22        -6.8540    3.3430    4.4330 c         1 MOL      0.686866
     66 O11        -7.7230    2.4770    4.2800 o         1 MOL     -0.660562
     67 O12        -6.5440    3.8670    5.5390 o         1 MOL     -0.660562
     68 H28        -5.9230    1.1940    3.7110 hn        1 MOL      0.344798
     69 H29        -4.5390    2.9030    1.7350 h1        1 MOL      0.013353
     70 H30        -6.3090    4.5420    2.7450 hc        1 MOL     -0.014290
     71 H31        -4.9180    4.0600    3.6050 hc        1 MOL     -0.014290
     72 N7         -6.3300    2.9720   -0.1110 n         1 MOL     -0.221222
     73 C23        -7.2310    2.7460   -1.2600 c3        1 MOL     -0.126624
     74 C24        -7.1890    1.3190   -1.7340 c         1 MOL      0.534297
     75 O13        -8.2360    0.7060   -2.0100 o         1 MOL     -0.529027
     76 H32        -5.5090    3.5570   -0.1590 hn        1 MOL      0.095327
     77 H33        -6.9680    3.4190   -2.0820 h1        1 MOL      0.090430
     78 H34        -8.2200    2.9140   -0.8350 h1        1 MOL      0.090430
     79 N8         -5.9730    0.7910   -2.0030 n         1 MOL     -0.265241
     80 C25        -5.6500   -0.5360   -2.5580 c3        1 MOL     -0.036188
     81 C26        -4.6140   -1.2560   -1.6830 c         1 MOL      0.068790
     82 O14        -3.5000   -0.8310   -1.5000 o         1 MOL     -0.255124
     83 C27        -5.1510   -0.5280   -3.9550 c3        1 MOL      0.386065
     84 C28        -6.2240   -0.0820   -4.9030 c3        1 MOL     -0.364394
     85 O15        -4.9210   -1.8760   -4.3310 oh        1 MOL     -0.590409
     86 H35        -5.1710    1.3770   -1.8210 hn        1 MOL      0.138838
     87 H36        -6.5900   -1.0900   -2.4590 h1        1 MOL      0.132241
     88 H37        -4.2580    0.0720   -4.1180 h1        1 MOL     -0.035311
     89 H38        -4.4750   -1.7770   -5.1770 ho        1 MOL      0.392299
     90 H39        -7.0770   -0.6920   -4.6350 hc        1 MOL      0.090704
     91 H40        -6.3160    0.9730   -4.6650 hc        1 MOL      0.090704
     92 H41        -6.0160   -0.3380   -5.9470 hc        1 MOL      0.090704
     93 N9         -4.9110   -2.4710   -1.3000 n         1 MOL     -0.033180
     94 C29        -4.2350   -3.2900   -0.2680 c3        1 MOL     -0.390948
     95 C30        -2.9500   -3.9830   -0.8340 c         1 MOL      0.310238
     96 O16        -2.3920   -4.9070   -0.2560 o         1 MOL     -0.513341
     97 C31        -5.1950   -4.0660    0.6590 c3        1 MOL      0.323188
     98 C32        -5.7210   -5.3460   -0.0160 c3        1 MOL      0.088100
     99 C33        -6.3120   -3.1540    1.1420 c3        1 MOL     -0.093540
    100 C34        -6.6590   -6.1750    0.8160 c3        1 MOL     -0.342593
    101 H42        -5.7300   -2.8020   -1.7730 hn        1 MOL      0.243552
    102 H43        -3.8160   -2.4970    0.3500 h1        1 MOL      0.186816
    103 H44        -4.7150   -4.3700    1.5840 hc        1 MOL     -0.012442
    104 H45        -4.8750   -6.0230   -0.1070 hc        1 MOL      0.005064
    105 H46        -6.2040   -5.0530   -0.9500 hc        1 MOL      0.005064
    106 H47        -6.8430   -2.7390    0.2840 hc        1 MOL      0.010355
    107 H48        -7.0050   -3.6850    1.7860 hc        1 MOL      0.010355
    108 H49        -5.8010   -2.3600    1.7000 hc        1 MOL      0.010355
    109 H50        -6.2820   -6.2740    1.8390 hc        1 MOL      0.081496
    110 H51        -7.5820   -5.5900    0.8900 hc        1 MOL      0.081496
    111 H52        -6.7180   -7.1400    0.3260 hc        1 MOL      0.081496
    112 N10        -2.3790   -3.4490   -1.9380 n         1 MOL      0.115704
    113 C35        -1.3870   -4.1790   -2.7200 c3        1 MOL     -0.216727
    114 C36         0.0030   -4.0700   -2.2560 c         1 MOL      0.446486
    115 O17         0.7520   -4.8040   -2.9160 o         1 MOL     -0.534156
    116 C37        -1.5350   -3.8070   -4.2340 c3        1 MOL      0.412734
    117 C38        -1.1610   -2.4020   -4.5370 c3        1 MOL     -0.338524
    118 O18        -2.8790   -3.8670   -4.4860 oh        1 MOL     -0.673128
    119 H53        -2.8270   -2.6050   -2.2820 hn        1 MOL     -0.033873
    120 H54        -1.6970   -5.2130   -2.5610 h1        1 MOL      0.148992
    121 H55        -0.9880   -4.5300   -4.8420 h1        1 MOL      0.019668
    122 H56        -3.1850   -3.4680   -5.3050 ho        1 MOL      0.393678
    123 H57        -1.2960   -2.1420   -5.5740 hc        1 MOL      0.086851
    124 H58        -1.7660   -1.6810   -3.9840 hc        1 MOL      0.086851
    125 H59        -0.1660   -2.1480   -4.1730 hc        1 MOL      0.086851
    126 N11         0.3690   -3.2950   -1.2320 n         1 MOL     -0.317407
    127 C39         1.7350   -3.1680   -0.6640 c3        1 MOL      0.086687
    128 C40         2.9560   -2.8170   -1.5530 c         1 MOL      0.641761
    129 O19         3.1290   -3.4360   -2.5820 o         1 MOL     -0.541765
    130 C41         2.1230   -4.3130    0.2110 c3        1 MOL      0.284353
    131 C42         1.2700   -4.2820    1.5190 c3        1 MOL     -0.354972
    132 O20         3.4610   -4.1920    0.7500 oh        1 MOL     -0.639340
    133 H60        -0.3960   -2.8660   -0.7430 hn        1 MOL      0.304540
    134 H61         1.7110   -2.3720    0.0850 h1        1 MOL     -0.193152
    135 H62         1.9950   -5.2560   -0.3170 h1        1 MOL      0.051537
    136 H63         3.2370   -4.3980    1.6590 ho        1 MOL      0.393845
    137 H64         1.6040   -5.0620    2.2110 hc        1 MOL      0.094053
    138 H65         1.4480   -3.3940    2.1080 hc        1 MOL      0.094053
    139 H66         0.2000   -4.4070    1.3260 hc        1 MOL      0.094053
    140 N12         3.7070   -1.7750   -1.1560 n         1 MOL     -0.353475
    141 C43         4.8570   -1.3040   -1.8750 c3        1 MOL     -0.244021
    142 C44         5.0140    0.2410   -1.9420 c         1 MOL      0.776492
    143 O21         5.6990    0.7830   -2.8200 o         1 MOL     -0.659122
    144 C45         6.1600   -1.9380   -1.3050 c3        1 MOL      0.078729
    145 C46         7.4650   -1.5570   -1.9710 c3        1 MOL     -0.006546
    146 C47         7.5940   -1.9060   -3.4540 c3        1 MOL     -0.065896
    147 C48         7.8040   -3.3540   -3.9300 c3        1 MOL     -0.010534
    148 N13         9.1910   -3.7780   -3.7400 n4        1 MOL     -0.391370
    149 H67         3.5380   -1.3760   -0.2360 hn        1 MOL      0.322824
    150 H68         4.6900   -1.5310   -2.9300 h1        1 MOL      0.106514
    151 H69         6.1540   -3.0250   -1.3000 hc        1 MOL      0.020005
    152 H70         6.1220   -1.7490   -0.2410 hc        1 MOL      0.020005
    153 H71         8.2690   -2.0170   -1.3940 hc        1 MOL      0.006056
    154 H72         7.5880   -0.4840   -1.8750 hc        1 MOL      0.006056
    155 H73         8.3790   -1.2500   -3.8340 hc        1 MOL      0.050054
    156 H74         6.6680   -1.6230   -3.9590 hc        1 MOL      0.050054
    157 H75         7.5410   -3.2930   -4.9830 hx        1 MOL      0.107717
    158 H76         7.0590   -3.9790   -3.4400 hx        1 MOL      0.107717
    159 H77         9.8060   -3.1470   -4.2460 hn        1 MOL      0.334589
    160 H78         9.4550   -3.7180   -2.7700 hn        1 MOL      0.334589
    161 H79         9.3660   -4.7310   -4.0090 hn        1 MOL      0.334589
    162 N14         4.3980    0.9730   -1.0020 n         1 MOL     -0.127697
    163 C49         4.4620    2.4330   -0.8920 c3        1 MOL     -0.415950
    164 C50         5.8050    2.9670   -0.5600 c         1 MOL      0.432266
    165 O22         6.3570    2.7450    0.5040 o         1 MOL     -0.508525
    166 C51         3.3070    2.8920    0.0370 c3        1 MOL      1.069801
    167 C52         3.1960    4.4790    0.0780 c3        1 MOL     -0.456255
    168 C53         3.0360    4.9970   -1.3580 c         1 MOL      0.411372
    169 O23         4.0800    5.4400   -1.8850 o         1 MOL     -0.572948
    170 O24         1.9210    4.9230   -1.8560 o         1 MOL     -0.572948
    171 H80         3.7620    0.4890   -0.3820 hn        1 MOL     -0.147732
    172 H81         4.1910    2.8460   -1.8600 h1        1 MOL      0.224215
    173 H82         3.4980    2.5290    1.0430 hc        1 MOL     -0.278699
    174 H83         2.3120    2.5980   -0.2750 hc        1 MOL     -0.278699
    175 H84         4.0780    4.8620    0.5780 hc        1 MOL      0.088703
    176 H85         2.2710    4.5510    0.6580 hc        1 MOL      0.088703
    177 N15         6.4630    3.7360   -1.4330 n         1 MOL     -0.146878
    178 C54         7.7370    4.4300   -1.1110 c3        1 MOL     -0.242872
    179 H86         8.0230    5.0700   -1.9460 h1        1 MOL      0.099766
    180 H87         7.6040    5.0380   -0.2170 h1        1 MOL      0.099766
    181 H88         8.5190    3.6910   -0.9360 h1        1 MOL      0.099766
    182 H89         5.9900    3.9790   -2.2960 hn        1 MOL      0.221092
    183 Ca1        -0.6560    4.9610   -2.4600 Ca        1 MOL      1.500171
    184 O25         0.6840    6.5760   -4.1470 oh        1 MOL     -0.791304
    185 H90         1.1600    7.0820   -3.4930 ho        1 MOL      0.393371
    186 H91         0.5110    7.1940   -4.8610 ho        1 MOL      0.393371
    187 O26        -2.8390    6.8720   -3.3320 oh        1 MOL     -0.791304
    188 H92        -3.1480    7.2570   -4.1460 ho        1 MOL      0.393371
    189 H93        -3.5870    6.3980   -2.9850 ho        1 MOL      0.393371
    190 O27        -0.7840    4.1870   -4.9930 oh        1 MOL     -0.791304
    191 H94        -1.1300    3.2980   -5.0840 ho        1 MOL      0.393371
    192 H95        -1.3070    4.7070   -5.6010 ho        1 MOL      0.393371
@<TRIPOS>BOND
     1    1    2 1   
     2    1    4 1   
     3    1    5 1   
     4    1    6 1   
     5    2    3 2   
     6    2    7 1   
     7    7    8 1   
     8    7   15 1   
     9    8    9 1   
    10    8   11 1   
    11    8   16 1   
    12    9   10 2   
    13    9   19 1   
    14   11   12 1   
    15   11   17 1   
    16   11   18 1   
    17   12   13 1   
    18   12   14 1   
    19   19   20 1   
    20   19   28 1   
    21   20   21 1   
    22   20   23 1   
    23   20   29 1   
    24   21   22 2   
    25   21   41 1   
    26   23   24 1   
    27   23   30 1   
    28   23   31 1   
    29   24   25 1   
    30   24   32 1   
    31   24   33 1   
    32   25   26 1   
    33   25   34 1   
    34   25   35 1   
    35   26   27 1   
    36   26   36 1   
    37   26   37 1   
    38   27   38 1   
    39   27   39 1   
    40   27   40 1   
    41   41   42 1   
    42   41   49 1   
    43   42   43 1   
    44   42   45 1   
    45   42   50 1   
    46   43   44 2   
    47   43   53 1   
    48   45   46 1   
    49   45   51 1   
    50   45   52 1   
    51   46   47 1   
    52   46   48 1   
    53   53   54 1   
    54   53   57 1   
    55   54   55 1   
    56   54   58 1   
    57   54   59 1   
    58   55   56 2   
    59   55   60 1   
    60   60   61 1   
    61   60   68 1   
    62   61   62 1   
    63   61   64 1   
    64   61   69 1   
    65   62   63 2   
    66   62   72 1   
    67   64   65 1   
    68   64   70 1   
    69   64   71 1   
    70   65   66 1   
    71   65   67 1   
    72   72   73 1   
    73   72   76 1   
    74   73   74 1   
    75   73   77 1   
    76   73   78 1   
    77   74   75 2   
    78   74   79 1   
    79   79   80 1   
    80   79   86 1   
    81   80   81 1   
    82   80   83 1   
    83   80   87 1   
    84   81   82 2   
    85   81   93 1   
    86   83   84 1   
    87   83   85 1   
    88   83   88 1   
    89   84   90 1   
    90   84   91 1   
    91   84   92 1   
    92   85   89 1   
    93   93   94 1   
    94   93  101 1   
    95   94   95 1   
    96   94   97 1   
    97   94  102 1   
    98   95   96 2   
    99   95  112 1   
   100   97   98 1   
   101   97   99 1   
   102   97  103 1   
   103   98  100 1   
   104   98  104 1   
   105   98  105 1   
   106   99  106 1   
   107   99  107 1   
   108   99  108 1   
   109  100  109 1   
   110  100  110 1   
   111  100  111 1   
   112  112  113 1   
   113  112  119 1   
   114  113  114 1   
   115  113  116 1   
   116  113  120 1   
   117  114  115 2   
   118  114  126 1   
   119  116  117 1   
   120  116  118 1   
   121  116  121 1   
   122  117  123 1   
   123  117  124 1   
   124  117  125 1   
   125  118  122 1   
   126  126  127 1   
   127  126  133 1   
   128  127  128 1   
   129  127  130 1   
   130  127  134 1   
   131  128  129 2   
   132  128  140 1   
   133  130  131 1   
   134  130  132 1   
   135  130  135 1   
   136  131  137 1   
   137  131  138 1   
   138  131  139 1   
   139  132  136 1   
   140  140  141 1   
   141  140  149 1   
   142  141  142 1   
   143  141  144 1   
   144  141  150 1   
   145  142  143 2   
   146  142  162 1   
   147  144  145 1   
   148  144  151 1   
   149  144  152 1   
   150  145  146 1   
   151  145  153 1   
   152  145  154 1   
   153  146  147 1   
   154  146  155 1   
   155  146  156 1   
   156  147  148 1   
   157  147  157 1   
   158  147  158 1   
   159  148  159 1   
   160  148  160 1   
   161  148  161 1   
   162  162  163 1   
   163  162  171 1   
   164  163  164 1   
   165  163  166 1   
   166  163  172 1   
   167  164  165 2   
   168  164  177 1   
   169  166  167 1   
   170  166  173 1   
   171  166  174 1   
   172  167  168 1   
   173  167  175 1   
   174  167  176 1   
   175  168  169 1   
   176  168  170 1   
   177  177  178 1   
   178  177  182 1   
   179  178  179 1   
   180  178  180 1   
   181  178  181 1   
   182  184  185 1   
   183  184  186 1   
   184  187  188 1   
   185  187  189 1   
   186  190  191 1   
   187  190  192 1   
@<TRIPOS>SUBSTRUCTURE
     1 MOL         1 TEMP              0 ****  ****    0 ROOT
