@<TRIPOS>MOLECULE
MOL
  192   187     1     0     0
SMALL
resp


@<TRIPOS>ATOM
      1 C1          9.4080    1.7540    0.4370 c3        1 MOL     -0.654029
      2 C2          8.2930    0.9320   -0.0320 c         1 MOL      0.904879
      3 O1          7.2590    0.8620    0.6310 o         1 MOL     -0.742118
      4 H1          9.0820    2.7900    0.5260 hc        1 MOL      0.167311
      5 H2          9.7420    1.3940    1.4090 hc        1 MOL      0.167311
      6 H3         10.2310    1.6930   -0.2770 hc        1 MOL      0.167311
      7 N1          8.3840    0.1940   -1.1680 n         1 MOL     -0.740123
      8 C3          7.2700   -0.5240   -1.8480 c3        1 MOL      0.172937
      9 C4          6.8690   -1.8620   -1.2260 c         1 MOL      0.477337
     10 O2          6.5980   -2.7960   -1.9020 o         1 MOL     -0.457979
     11 C5          7.4570   -0.6170   -3.3600 c3        1 MOL     -0.193880
     12 C6          8.6670   -1.3350   -3.9310 c         1 MOL      0.673503
     13 O3          8.9290   -1.2390   -5.1760 o         1 MOL     -0.633074
     14 O4          9.4240   -1.9760   -3.1830 o         1 MOL     -0.633074
     15 H4          9.2660    0.3880   -1.6240 hn        1 MOL      0.350115
     16 H5          6.3280    0.0090   -1.7380 h1        1 MOL      0.051066
     17 H6          7.3490    0.3330   -3.8740 hc        1 MOL      0.062137
     18 H7          6.6030   -1.1680   -3.7720 hc        1 MOL      0.062137
     19 N2          6.7150   -1.9030    0.0670 n         1 MOL     -0.389076
     20 C7          6.3170   -3.0780    0.8630 c3        1 MOL     -0.070497
     21 C8          4.8570   -3.4940    0.7020 c         1 MOL      0.704237
     22 O5          4.6760   -4.6120    0.4220 o         1 MOL     -0.551777
     23 C9          6.8270   -2.8390    2.2830 c3        1 MOL      0.027589
     24 C10         8.3800   -2.7830    2.4160 c3        1 MOL      0.016011
     25 C11         8.7900   -2.7180    3.9390 c3        1 MOL      0.025892
     26 C12        10.2070   -2.1960    4.1870 c3        1 MOL      0.100112
     27 N3         10.4180   -1.8180    5.5960 n4        1 MOL     -0.333318
     28 H8          6.9620   -1.0500    0.5560 hn        1 MOL      0.355120
     29 H9          6.8500   -3.9170    0.4240 h1        1 MOL      0.102895
     30 H10         6.5520   -3.6690    2.9350 hc        1 MOL     -0.003672
     31 H11         6.4570   -1.9340    2.7740 hc        1 MOL     -0.003672
     32 H12         8.7640   -1.9070    1.8880 hc        1 MOL      0.012762
     33 H13         8.8470   -3.7030    2.0730 hc        1 MOL      0.012762
     34 H14         8.6770   -3.6970    4.4000 hc        1 MOL      0.007470
     35 H15         8.0560   -2.0200    4.3350 hc        1 MOL      0.007470
     36 H16        10.3500   -1.3660    3.4900 hx        1 MOL      0.053277
     37 H17        10.8730   -2.9780    3.8400 hx        1 MOL      0.053277
     38 H18         9.8420   -1.0190    5.8060 hn        1 MOL      0.261439
     39 H19        10.1610   -2.6250    6.1540 hn        1 MOL      0.261439
     40 H20        11.3520   -1.6000    5.8930 hn        1 MOL      0.261439
     41 N4          3.7970   -2.7400    0.9880 n         1 MOL     -0.624968
     42 C13         3.8320   -1.2800    1.2970 c3        1 MOL      0.195173
     43 C14         3.7980   -0.3190    0.0820 c         1 MOL      0.244337
     44 O6          3.6300   -0.7090   -1.0800 o         1 MOL     -0.418995
     45 C15         2.6300   -0.9140    2.2390 c3        1 MOL     -0.300161
     46 C16         1.3590   -1.5250    1.7030 c         1 MOL      0.789652
     47 O7          0.7990   -0.9040    0.7530 o         1 MOL     -0.685061
     48 O8          0.9310   -2.6090    2.2620 o         1 MOL     -0.685061
     49 H21         2.8850   -3.1710    0.8720 hn        1 MOL      0.389498
     50 H22         4.7830   -0.9900    1.7280 h1        1 MOL      0.028669
     51 H23         2.4810    0.1540    2.3680 hc        1 MOL      0.045802
     52 H24         2.7220   -1.3080    3.2460 hc        1 MOL      0.045802
     53 N5          3.9480    0.9800    0.3250 n         1 MOL     -0.235095
     54 C17         4.0490    1.9730   -0.7080 c3        1 MOL     -0.031473
     55 C18         2.6900    2.3840   -1.1250 c         1 MOL      0.431221
     56 O9          1.6190    2.0250   -0.6490 o         1 MOL     -0.462917
     57 H25         4.0660    1.2750    1.2870 hn        1 MOL      0.273080
     58 H26         4.5480    1.4860   -1.5440 h1        1 MOL      0.083538
     59 H27         4.5580    2.8880   -0.4290 h1        1 MOL      0.083538
     60 N6          2.7720    3.2550   -2.1690 n         1 MOL     -0.443748
     61 C19         1.6360    3.8980   -2.8160 c3        1 MOL      0.301809
     62 C20         2.0540    5.3720   -3.0600 c         1 MOL      0.458694
     63 O10         3.1980    5.7410   -3.0490 o         1 MOL     -0.531853
     64 C21         1.3680    3.2280   -4.1790 c3        1 MOL     -0.327294
     65 C22         0.5250    1.9530   -4.0450 c         1 MOL      0.692513
     66 O11        -0.2990    1.8300   -3.0630 o         1 MOL     -0.671651
     67 O12         0.6480    1.0070   -4.8770 o         1 MOL     -0.671651
     68 H28         3.6950    3.4740   -2.5000 hn        1 MOL      0.280066
     69 H29         0.7370    3.8650   -2.2000 h1        1 MOL     -0.012438
     70 H30         2.2810    3.0480   -4.7450 hc        1 MOL      0.094075
     71 H31         0.7720    3.9040   -4.7890 hc        1 MOL      0.094075
     72 N7          1.1150    6.3450   -3.0960 n         1 MOL     -0.452271
     73 C23        -0.3800    6.2820   -3.1400 c3        1 MOL     -0.132582
     74 C24        -0.9640    5.9890   -1.7630 c         1 MOL      0.711866
     75 O13        -0.4290    6.4860   -0.8040 o         1 MOL     -0.547222
     76 H32         1.4640    7.2850   -3.1560 hn        1 MOL      0.320412
     77 H33        -0.7180    5.5290   -3.8510 h1        1 MOL      0.092797
     78 H34        -0.8110    7.2380   -3.4530 h1        1 MOL      0.092797
     79 N8         -2.1000    5.2490   -1.6590 n         1 MOL     -0.636912
     80 C25        -2.7560    4.8860   -0.4520 c3        1 MOL     -0.000423
     81 C26        -2.0420    3.8230    0.2880 c         1 MOL      0.926191
     82 O14        -1.6330    2.7850   -0.2760 o         1 MOL     -0.682907
     83 C27        -4.2060    4.5680   -0.7580 c3        1 MOL      0.210492
     84 C28        -5.1720    4.0160    0.3520 c3        1 MOL     -0.392910
     85 O15        -4.2350    3.5700   -1.7190 oh        1 MOL     -0.565839
     86 H35        -2.4320    4.7930   -2.4930 hn        1 MOL      0.317763
     87 H36        -2.8190    5.7790    0.1710 h1        1 MOL      0.068400
     88 H37        -4.6770    5.4280   -1.2280 h1        1 MOL      0.046268
     89 H38        -5.0870    3.6420   -2.1700 ho        1 MOL      0.411306
     90 H39        -4.9460    2.9700    0.5750 hc        1 MOL      0.098935
     91 H40        -5.0710    4.6290    1.2450 hc        1 MOL      0.098935
     92 H41        -6.1850    3.9690   -0.0630 hc        1 MOL      0.098935
     93 N9         -1.7790    4.0770    1.6190 n         1 MOL     -0.764796
     94 C29        -1.0750    3.1920    2.5650 c3        1 MOL      0.053547
     95 C30        -1.6350    1.7510    2.5660 c         1 MOL      0.882665
     96 O16        -1.3490    0.9230    1.6810 o         1 MOL     -0.696817
     97 C31         0.4860    3.1810    2.3620 c3        1 MOL      0.286426
     98 C32         1.0040    4.6460    2.3770 c3        1 MOL     -0.169228
     99 C33         1.2140    2.5220    3.5180 c3        1 MOL     -0.298734
    100 C34         0.6790    5.5820    3.6010 c3        1 MOL     -0.189775
    101 H42        -2.0920    4.9800    1.9700 hn        1 MOL      0.340808
    102 H43        -1.1830    3.6310    3.5590 h1        1 MOL      0.050550
    103 H44         0.7620    2.6420    1.4640 hc        1 MOL     -0.117120
    104 H45         0.7010    5.1530    1.4540 hc        1 MOL      0.086094
    105 H46         2.0870    4.6410    2.2440 hc        1 MOL      0.086094
    106 H47         2.2990    2.5890    3.4470 hc        1 MOL      0.066627
    107 H48         0.9070    2.9630    4.4760 hc        1 MOL      0.066627
    108 H49         0.8230    1.5100    3.6220 hc        1 MOL      0.066627
    109 H50        -0.3760    5.4490    3.8480 hc        1 MOL      0.052812
    110 H51         1.2530    5.2350    4.4620 hc        1 MOL      0.052812
    111 H52         0.9280    6.6340    3.4520 hc        1 MOL      0.052812
    112 N10        -2.3420    1.4500    3.6530 n         1 MOL     -0.836061
    113 C35        -2.5850    0.0630    4.0890 c3        1 MOL      0.018165
    114 C36        -3.9330   -0.5160    3.6100 c         1 MOL      0.385631
    115 O17        -4.3460   -1.5730    4.1090 o         1 MOL     -0.533537
    116 C37        -2.3080   -0.0670    5.5790 c3        1 MOL      0.636832
    117 C38        -3.3990    0.5500    6.3810 c3        1 MOL     -0.237609
    118 O18        -1.0240    0.4020    5.8870 oh        1 MOL     -0.659376
    119 H53        -2.4830    2.1870    4.3380 hn        1 MOL      0.380531
    120 H54        -1.8390   -0.6170    3.6810 h1        1 MOL      0.090636
    121 H55        -2.3470   -1.1360    5.8200 h1        1 MOL     -0.077341
    122 H56        -0.4440   -0.3000    5.5910 ho        1 MOL      0.389357
    123 H57        -3.5480    1.5470    5.9800 hc        1 MOL      0.051739
    124 H58        -4.2960   -0.0640    6.3180 hc        1 MOL      0.051739
    125 H59        -3.0990    0.5650    7.4220 hc        1 MOL      0.051739
    126 N11        -4.7230    0.1040    2.7270 n         1 MOL     -0.135017
    127 C39        -5.9600   -0.4530    2.1880 c3        1 MOL     -0.127792
    128 C40        -5.9750   -0.8700    0.7020 c         1 MOL      0.500380
    129 O19        -5.6580   -0.0780   -0.1570 o         1 MOL     -0.421372
    130 C41        -7.1780    0.4370    2.5030 c3        1 MOL      0.371202
    131 C42        -7.3330    0.5760    3.9730 c3        1 MOL     -0.251919
    132 O20        -6.9580    1.7660    1.9770 oh        1 MOL     -0.627443
    133 H60        -4.3270    0.9390    2.3160 hn        1 MOL      0.233865
    134 H61        -6.1810   -1.3710    2.7400 h1        1 MOL      0.103133
    135 H62        -8.0170   -0.1250    2.1070 h1        1 MOL     -0.051512
    136 H63        -7.8050    2.0630    1.6350 ho        1 MOL      0.399132
    137 H64        -6.4500    1.0280    4.4220 hc        1 MOL      0.065007
    138 H65        -8.2150    1.1790    4.2100 hc        1 MOL      0.065007
    139 H66        -7.4340   -0.3820    4.4860 hc        1 MOL      0.065007
    140 N12        -6.4570   -2.1530    0.4820 n         1 MOL     -0.581677
    141 C43        -6.4110   -2.9370   -0.7710 c3        1 MOL      0.247716
    142 C44        -5.1110   -2.9860   -1.5460 c         1 MOL      0.530875
    143 O21        -4.9360   -2.4450   -2.6150 o         1 MOL     -0.476425
    144 C45        -7.5940   -2.4530   -1.6560 c3        1 MOL     -0.658331
    145 C46        -8.8750   -2.1850   -0.9000 c3        1 MOL      0.238534
    146 C47       -10.0160   -1.7740   -1.8530 c3        1 MOL      0.009337
    147 C48       -11.2510   -1.4160   -1.0780 c3        1 MOL      0.068178
    148 N13       -12.2830   -0.7580   -1.9250 n4        1 MOL     -0.108496
    149 H67        -6.7940   -2.6550    1.2870 hn        1 MOL      0.298032
    150 H68        -6.6500   -3.9480   -0.4320 h1        1 MOL      0.047388
    151 H69        -7.7150   -3.2150   -2.4290 hc        1 MOL      0.187942
    152 H70        -7.2590   -1.5320   -2.1310 hc        1 MOL      0.187942
    153 H71        -8.7410   -1.2700   -0.3320 hc        1 MOL      0.011517
    154 H72        -9.2300   -3.0030   -0.2700 hc        1 MOL      0.011517
    155 H73       -10.1260   -2.5810   -2.5720 hc        1 MOL      0.022747
    156 H74        -9.7890   -0.8400   -2.3600 hc        1 MOL      0.022747
    157 H75       -10.9900   -0.8330   -0.2030 hx        1 MOL      0.020027
    158 H76       -11.6450   -2.3600   -0.6960 hx        1 MOL      0.020027
    159 H77       -11.8720   -0.1610   -2.6210 hn        1 MOL      0.177380
    160 H78       -12.8610   -1.4490   -2.3690 hn        1 MOL      0.177380
    161 H79       -12.9340   -0.2430   -1.3510 hn        1 MOL      0.177380
    162 N14        -4.1590   -3.6220   -0.8870 n         1 MOL     -0.645029
    163 C49        -2.8130   -3.7940   -1.4600 c3        1 MOL      0.415061
    164 C50        -1.7530   -2.9780   -0.6400 c         1 MOL      0.245959
    165 O22        -1.0860   -2.1430   -1.2400 o         1 MOL     -0.518612
    166 C51        -2.5380   -5.3060   -1.5790 c3        1 MOL      0.113958
    167 C52        -3.4690   -5.7940   -2.7210 c3        1 MOL     -0.286822
    168 C53        -3.1850   -7.2850   -2.9060 c         1 MOL      0.702190
    169 O23        -2.1840   -7.6400   -3.5810 o         1 MOL     -0.631839
    170 O24        -3.9210   -8.1140   -2.3500 o         1 MOL     -0.631839
    171 H80        -4.2810   -4.1770   -0.0440 hn        1 MOL      0.344891
    172 H81        -2.6570   -3.3140   -2.4300 h1        1 MOL      0.026465
    173 H82        -2.9360   -5.8270   -0.7150 hc        1 MOL     -0.002737
    174 H83        -1.4900   -5.5210   -1.7550 hc        1 MOL     -0.002737
    175 H84        -3.2360   -5.2870   -3.6560 hc        1 MOL      0.038538
    176 H85        -4.5080   -5.6060   -2.4410 hc        1 MOL      0.038538
    177 N15        -1.5340   -3.3070    0.6440 n         1 MOL     -0.278541
    178 C54        -1.8990   -4.4900    1.4860 c3        1 MOL     -0.003852
    179 H86        -1.5100   -4.3510    2.4950 h1        1 MOL      0.038440
    180 H87        -2.9840   -4.5880    1.5260 h1        1 MOL      0.038440
    181 H88        -1.4680   -5.3920    1.0520 h1        1 MOL      0.038440
    182 H89        -0.7980   -2.7440    1.0510 hn        1 MOL      0.247184
    183 Ca1        -0.4740    0.5340   -0.9080 Ca        1 MOL      1.775666
    184 O25        -1.6850   -0.2990   -3.8580 oh        1 MOL     -0.833097
    185 H90        -0.9070    0.1910   -4.1050 ho        1 MOL      0.395248
    186 H91        -1.4770   -1.2070   -4.0870 ho        1 MOL      0.395248
    187 O26         1.2960   -0.6660   -2.3610 oh        1 MOL     -0.833097
    188 H92         2.2270   -0.6320   -2.1130 ho        1 MOL      0.395248
    189 H93         1.3060   -1.0750   -3.2240 ho        1 MOL      0.395248
    190 O27        -3.1870    0.1560   -1.1180 oh        1 MOL     -0.833097
    191 H94        -3.6790   -0.5290   -1.5640 ho        1 MOL      0.395248
    192 H95        -3.8310    0.6060   -0.5710 ho        1 MOL      0.395248
@<TRIPOS>BOND
     1    1    2 1   
     2    1    4 1   
     3    1    5 1   
     4    1    6 1   
     5    2    3 2   
     6    2    7 1   
     7    7    8 1   
     8    7   15 1   
     9    8    9 1   
    10    8   11 1   
    11    8   16 1   
    12    9   10 2   
    13    9   19 1   
    14   11   12 1   
    15   11   17 1   
    16   11   18 1   
    17   12   13 1   
    18   12   14 1   
    19   19   20 1   
    20   19   28 1   
    21   20   21 1   
    22   20   23 1   
    23   20   29 1   
    24   21   22 2   
    25   21   41 1   
    26   23   24 1   
    27   23   30 1   
    28   23   31 1   
    29   24   25 1   
    30   24   32 1   
    31   24   33 1   
    32   25   26 1   
    33   25   34 1   
    34   25   35 1   
    35   26   27 1   
    36   26   36 1   
    37   26   37 1   
    38   27   38 1   
    39   27   39 1   
    40   27   40 1   
    41   41   42 1   
    42   41   49 1   
    43   42   43 1   
    44   42   45 1   
    45   42   50 1   
    46   43   44 2   
    47   43   53 1   
    48   45   46 1   
    49   45   51 1   
    50   45   52 1   
    51   46   47 1   
    52   46   48 1   
    53   53   54 1   
    54   53   57 1   
    55   54   55 1   
    56   54   58 1   
    57   54   59 1   
    58   55   56 2   
    59   55   60 1   
    60   60   61 1   
    61   60   68 1   
    62   61   62 1   
    63   61   64 1   
    64   61   69 1   
    65   62   63 2   
    66   62   72 1   
    67   64   65 1   
    68   64   70 1   
    69   64   71 1   
    70   65   66 1   
    71   65   67 1   
    72   72   73 1   
    73   72   76 1   
    74   73   74 1   
    75   73   77 1   
    76   73   78 1   
    77   74   75 2   
    78   74   79 1   
    79   79   80 1   
    80   79   86 1   
    81   80   81 1   
    82   80   83 1   
    83   80   87 1   
    84   81   82 2   
    85   81   93 1   
    86   83   84 1   
    87   83   85 1   
    88   83   88 1   
    89   84   90 1   
    90   84   91 1   
    91   84   92 1   
    92   85   89 1   
    93   93   94 1   
    94   93  101 1   
    95   94   95 1   
    96   94   97 1   
    97   94  102 1   
    98   95   96 2   
    99   95  112 1   
   100   97   98 1   
   101   97   99 1   
   102   97  103 1   
   103   98  100 1   
   104   98  104 1   
   105   98  105 1   
   106   99  106 1   
   107   99  107 1   
   108   99  108 1   
   109  100  109 1   
   110  100  110 1   
   111  100  111 1   
   112  112  113 1   
   113  112  119 1   
   114  113  114 1   
   115  113  116 1   
   116  113  120 1   
   117  114  115 2   
   118  114  126 1   
   119  116  117 1   
   120  116  118 1   
   121  116  121 1   
   122  117  123 1   
   123  117  124 1   
   124  117  125 1   
   125  118  122 1   
   126  126  127 1   
   127  126  133 1   
   128  127  128 1   
   129  127  130 1   
   130  127  134 1   
   131  128  129 2   
   132  128  140 1   
   133  130  131 1   
   134  130  132 1   
   135  130  135 1   
   136  131  137 1   
   137  131  138 1   
   138  131  139 1   
   139  132  136 1   
   140  140  141 1   
   141  140  149 1   
   142  141  142 1   
   143  141  144 1   
   144  141  150 1   
   145  142  143 2   
   146  142  162 1   
   147  144  145 1   
   148  144  151 1   
   149  144  152 1   
   150  145  146 1   
   151  145  153 1   
   152  145  154 1   
   153  146  147 1   
   154  146  155 1   
   155  146  156 1   
   156  147  148 1   
   157  147  157 1   
   158  147  158 1   
   159  148  159 1   
   160  148  160 1   
   161  148  161 1   
   162  162  163 1   
   163  162  171 1   
   164  163  164 1   
   165  163  166 1   
   166  163  172 1   
   167  164  165 2   
   168  164  177 1   
   169  166  167 1   
   170  166  173 1   
   171  166  174 1   
   172  167  168 1   
   173  167  175 1   
   174  167  176 1   
   175  168  169 1   
   176  168  170 1   
   177  177  178 1   
   178  177  182 1   
   179  178  179 1   
   180  178  180 1   
   181  178  181 1   
   182  184  185 1   
   183  184  186 1   
   184  187  188 1   
   185  187  189 1   
   186  190  191 1   
   187  190  192 1   
@<TRIPOS>SUBSTRUCTURE
     1 MOL         1 TEMP              0 ****  ****    0 ROOT
