@<TRIPOS>MOLECULE
MOL
  185   180     1     0     0
SMALL
resp


@<TRIPOS>ATOM
      1 C1          6.4460    1.4000    4.3820 c3        1 MOL     -0.385547
      2 C2          7.0140    1.5950    2.9790 c         1 MOL      0.593209
      3 O1          6.2430    1.5230    1.9810 o         1 MOL     -0.476984
      4 H1          6.9030    0.5210    4.8390 hc        1 MOL      0.111677
      5 H2          6.6630    2.2790    4.9870 hc        1 MOL      0.111677
      6 H3          5.3670    1.2570    4.3200 hc        1 MOL      0.111677
      7 N1          8.3170    1.7420    2.7040 n         1 MOL     -0.478103
      8 C3          8.9610    1.8500    1.3590 c3        1 MOL     -0.089490
      9 C4          8.7170    0.7170    0.2860 c         1 MOL      0.500606
     10 O2          8.9600    0.8390   -0.9060 o         1 MOL     -0.480467
     11 C5          8.5890    3.2490    0.7510 c3        1 MOL     -0.055979
     12 C6          8.7040    4.4350    1.6990 c         1 MOL      0.676285
     13 O3          7.6630    5.0940    1.9910 o         1 MOL     -0.657156
     14 O4          9.8590    4.7780    2.0600 o         1 MOL     -0.657156
     15 H4          8.9150    1.6150    3.5100 hn        1 MOL      0.303604
     16 H5         10.0410    1.7860    1.4890 h1        1 MOL      0.116497
     17 H6          7.5550    3.2190    0.3890 hc        1 MOL      0.034648
     18 H7          9.1210    3.3780   -0.1930 hc        1 MOL      0.034648
     19 N2          8.1290   -0.4610    0.6850 n         1 MOL     -0.526438
     20 C7          8.0050   -1.6730   -0.2700 c3        1 MOL      0.117889
     21 C8          6.5570   -2.1760   -0.3040 c         1 MOL      0.725975
     22 O5          6.2780   -3.3340   -0.1540 o         1 MOL     -0.607294
     23 C9          9.0530   -2.7150    0.0540 c3        1 MOL     -0.078884
     24 C10         9.5190   -3.6310   -1.0760 c3        1 MOL     -0.051814
     25 C11        10.1110   -4.8790   -0.5680 c3        1 MOL     -0.179075
     26 C12        10.4840   -5.7610   -1.7680 c3        1 MOL      0.199216
     27 N3         11.1350   -7.0360   -1.4720 n4        1 MOL     -0.331408
     28 H8          7.9660   -0.5820    1.6780 hn        1 MOL      0.266570
     29 H9          8.2630   -1.3540   -1.2890 h1        1 MOL      0.026464
     30 H10         8.9500   -3.2580    0.9910 hc        1 MOL      0.053913
     31 H11         9.9450   -2.1220    0.2410 hc        1 MOL      0.053913
     32 H12        10.2960   -3.1330   -1.6560 hc        1 MOL      0.065748
     33 H13         8.6640   -4.0000   -1.6440 hc        1 MOL      0.065748
     34 H14         9.4760   -5.4930    0.0640 hc        1 MOL      0.060977
     35 H15        10.9570   -4.5080    0.0030 hc        1 MOL      0.060977
     36 H16        11.1060   -5.1320   -2.4150 hx        1 MOL      0.035910
     37 H17         9.6160   -5.9920   -2.3770 hx        1 MOL      0.035910
     38 H18        10.4800   -7.7090   -1.0950 hn        1 MOL      0.295482
     39 H19        11.5500   -7.3760   -2.3230 hn        1 MOL      0.295482
     40 H20        11.8550   -6.9540   -0.7740 hn        1 MOL      0.295482
     41 N4          5.6640   -1.2280   -0.3470 n         1 MOL     -0.665537
     42 C13         4.2360   -1.5340   -0.1870 c3        1 MOL      0.121263
     43 C14         3.7520   -2.3160   -1.3490 c         1 MOL      0.439674
     44 O6          4.0000   -2.0790   -2.5180 o         1 MOL     -0.501219
     45 C15         3.4410   -0.2640    0.1810 c3        1 MOL     -0.101679
     46 C16         2.0000   -0.5810    0.6120 c         1 MOL      0.628317
     47 O7          1.5360   -0.4040    1.7450 o         1 MOL     -0.697058
     48 O8          1.2460   -0.9000   -0.3150 o         1 MOL     -0.697058
     49 H21         5.9590   -0.2680   -0.3160 hn        1 MOL      0.386205
     50 H22         4.1700   -2.2450    0.6350 h1        1 MOL      0.033244
     51 H23         3.3730    0.3380   -0.7270 hc        1 MOL      0.078030
     52 H24         3.9580    0.3010    0.9490 hc        1 MOL      0.078030
     53 N5          2.9190   -3.3210   -1.0550 n         1 MOL     -0.262454
     54 C17         2.3790   -4.2490   -1.9670 c3        1 MOL     -0.005275
     55 C18         1.3370   -3.6610   -2.9300 c         1 MOL      0.480322
     56 O9          1.0610   -4.3450   -3.9140 o         1 MOL     -0.580382
     57 H25         2.7070   -3.4380   -0.0780 hn        1 MOL      0.205818
     58 H26         2.0300   -5.1410   -1.4400 h1        1 MOL      0.056822
     59 H27         3.1760   -4.6720   -2.5810 h1        1 MOL      0.056822
     60 N6          0.8160   -2.5050   -2.6620 n         1 MOL     -0.241249
     61 C19         0.1650   -1.6950   -3.7240 c3        1 MOL      0.069044
     62 C20         0.5380   -0.1800   -3.5900 c         1 MOL      0.350729
     63 O10        -0.2210    0.7100   -4.0380 o         1 MOL     -0.520177
     64 C21        -1.3290   -1.9440   -3.6960 c3        1 MOL     -0.326627
     65 C22        -2.0370   -1.2050   -2.5400 c         1 MOL      0.490155
     66 N7         -3.3080   -0.9720   -2.6520 n         1 MOL     -0.621310
     67 O11        -1.4590   -1.0370   -1.5090 o         1 MOL     -0.428665
     68 H28         0.9860   -2.0780   -1.7620 hn        1 MOL      0.185272
     69 H29         0.4990   -2.0520   -4.6990 h1        1 MOL      0.110546
     70 H30        -1.6640   -2.9740   -3.6090 hc        1 MOL      0.113481
     71 H31        -1.7860   -1.5200   -4.5910 hc        1 MOL      0.113481
     72 H32        -3.8360   -1.2520   -3.4640 hn        1 MOL      0.319388
     73 H33        -3.9130   -0.6440   -1.9220 hn        1 MOL      0.319388
     74 N8          1.7200    0.1000   -3.1120 n         1 MOL     -0.028090
     75 C23         2.3360    1.4270   -3.1720 c3        1 MOL     -0.353692
     76 C24         1.7100    2.4350   -2.2460 c         1 MOL      0.569167
     77 O12         2.0690    3.5750   -2.4020 o         1 MOL     -0.503275
     78 H34         2.2740   -0.7260   -2.9420 hn        1 MOL      0.106661
     79 H35         2.2900    1.7490   -4.2160 h1        1 MOL      0.164594
     80 H36         3.3860    1.2230   -2.9670 h1        1 MOL      0.164594
     81 N9          0.7720    2.0660   -1.3830 n         1 MOL     -0.273018
     82 C25        -0.0360    2.9410   -0.5070 c3        1 MOL     -0.135990
     83 C26        -1.4030    2.2410   -0.2690 c         1 MOL      0.883805
     84 O13        -1.4510    1.1440    0.3270 o         1 MOL     -0.585427
     85 C27         0.7480    3.2030    0.8170 c3        1 MOL     -0.020567
     86 C28         2.0450    3.9440    0.7510 ca        1 MOL      0.065199
     87 C29         2.0480    5.2670    0.4170 ca        1 MOL     -0.159753
     88 C30         3.2250    3.3970    1.2810 ca        1 MOL     -0.159753
     89 C31         3.2240    6.0960    0.5010 ca        1 MOL     -0.330218
     90 C32         4.4450    4.1700    1.3730 ca        1 MOL     -0.330218
     91 C33         4.4780    5.5210    0.8610 ca        1 MOL      0.477423
     92 O14         5.5620    6.2910    0.8490 oh        1 MOL     -0.566091
     93 H37         0.5090    1.0930   -1.4350 hn        1 MOL      0.098594
     94 H38        -0.1350    3.9350   -0.9530 h1        1 MOL      0.087870
     95 H39         0.8850    2.2620    1.3630 hc        1 MOL      0.017109
     96 H40         0.1330    3.7960    1.4860 hc        1 MOL      0.017109
     97 H41         1.1740    5.7330   -0.0240 ha        1 MOL      0.111873
     98 H42         3.2760    2.3970    1.6910 ha        1 MOL      0.111873
     99 H43         3.2820    7.1340    0.2140 ha        1 MOL      0.153204
    100 H44         5.3360    3.7850    1.8370 ha        1 MOL      0.153204
    101 H45         6.3380    5.8550    1.2120 ho        1 MOL      0.414115
    102 N10        -2.5600    2.9080   -0.5160 n         1 MOL     -0.759667
    103 C34        -3.8470    2.5260   -0.0030 c3        1 MOL      0.184880
    104 C35        -4.6260    1.9310   -1.1430 c         1 MOL      0.420436
    105 O15        -5.0340    0.7870   -0.9370 o         1 MOL     -0.367345
    106 C36        -4.4940    3.7850    0.6300 c3        1 MOL      0.069821
    107 C37        -3.7250    4.2800    1.9620 c3        1 MOL      0.012499
    108 C38        -5.9670    3.5930    1.0980 c3        1 MOL     -0.370957
    109 C39        -3.7530    3.1470    3.0590 c3        1 MOL     -0.182963
    110 H46        -2.4640    3.6740   -1.1720 hn        1 MOL      0.312275
    111 H47        -3.6650    1.8070    0.7860 h1        1 MOL     -0.003718
    112 H48        -4.5000    4.5960   -0.0980 hc        1 MOL      0.003177
    113 H49        -4.1810    5.2140    2.2900 hc        1 MOL      0.024566
    114 H50        -2.6800    4.5220    1.7530 hc        1 MOL      0.024566
    115 H51        -6.3870    4.4700    1.5970 hc        1 MOL      0.110275
    116 H52        -6.5510    3.3930    0.1970 hc        1 MOL      0.110275
    117 H53        -6.0170    2.6380    1.6210 hc        1 MOL      0.110275
    118 H54        -3.3980    2.2120    2.6350 hc        1 MOL      0.062660
    119 H55        -3.1300    3.5120    3.8670 hc        1 MOL      0.062660
    120 H56        -4.7860    3.1050    3.4050 hc        1 MOL      0.062660
    121 N11        -4.7620    2.5450   -2.3070 n         1 MOL     -0.225286
    122 C40        -5.4640    1.9350   -3.4040 c3        1 MOL     -0.475735
    123 C41        -6.8930    1.3800   -3.1370 c         1 MOL      0.519661
    124 O16        -7.2620    0.5250   -3.9000 o         1 MOL     -0.481139
    125 C42        -5.7030    2.9690   -4.4780 c3        1 MOL      0.379088
    126 O17        -4.6190    3.7960   -4.7410 oh        1 MOL     -0.649922
    127 H57        -4.5170    3.5220   -2.3960 hn        1 MOL      0.274402
    128 H58        -4.8350    1.1750   -3.8580 h1        1 MOL      0.186254
    129 H59        -6.6440    3.5200   -4.5610 h1        1 MOL      0.034878
    130 H60        -5.8500    2.4110   -5.4060 h1        1 MOL      0.034878
    131 H61        -3.8100    3.3010   -4.8800 ho        1 MOL      0.430421
    132 N12        -7.6080    1.8090   -2.0870 n         1 MOL     -0.381533
    133 C43        -8.9060    1.3670   -1.6850 c3        1 MOL      0.254162
    134 C44        -8.8030   -0.1270   -1.2140 c         1 MOL      0.308965
    135 O18        -9.8360   -0.8130   -1.2100 o         1 MOL     -0.505244
    136 C45       -10.0080    1.6770   -2.6830 c3        1 MOL     -0.295839
    137 H62        -7.2280    2.5850   -1.5710 hn        1 MOL      0.209336
    138 H63        -9.0460    1.9730   -0.8000 h1        1 MOL      0.031638
    139 H64        -9.8220    1.2740   -3.6720 hc        1 MOL      0.089812
    140 H65       -10.9600    1.3160   -2.2850 hc        1 MOL      0.089812
    141 H66       -10.0720    2.7570   -2.8210 hc        1 MOL      0.089812
    142 N13        -7.6310   -0.5990   -0.8180 n         1 MOL     -0.146349
    143 C46        -7.4050   -1.9790   -0.2960 c3        1 MOL      0.320965
    144 C47        -7.0950   -2.0310    1.2030 c         1 MOL      0.370980
    145 O19        -6.5960   -1.0690    1.7360 o         1 MOL     -0.548545
    146 C48        -6.3620   -2.7890   -1.1120 c3        1 MOL     -0.227457
    147 H67        -6.8330    0.0200   -0.8200 hn        1 MOL      0.030057
    148 H68        -8.3510   -2.4950   -0.4720 h1        1 MOL     -0.036533
    149 H69        -6.6210   -2.6910   -2.1680 hc        1 MOL      0.053762
    150 H70        -5.4010   -2.2740   -1.1640 hc        1 MOL      0.053762
    151 H71        -6.2430   -3.8190   -0.7930 hc        1 MOL      0.053762
    152 N14        -7.4220   -3.1290    1.8140 n         1 MOL     -0.411385
    153 C49        -7.1490   -3.4220    3.2850 c3        1 MOL      0.014499
    154 C50        -7.7590   -2.3980    4.3050 c         1 MOL      0.442956
    155 O20        -7.3050   -2.3050    5.4360 o         1 MOL     -0.479894
    156 C51        -5.6220   -3.8320    3.4730 c3        1 MOL      0.235677
    157 C52        -4.6810   -2.6010    3.6230 c3        1 MOL     -0.192027
    158 C53        -3.1750   -2.9930    3.7390 c         1 MOL      0.718216
    159 O21        -2.8520   -4.1040    4.2220 o         1 MOL     -0.717041
    160 O22        -2.3530   -2.1870    3.3090 o         1 MOL     -0.717041
    161 H72        -7.8000   -3.8980    1.2690 hn        1 MOL      0.276046
    162 H73        -7.6100   -4.3590    3.5940 h1        1 MOL      0.053230
    163 H74        -5.3630   -4.3080    2.5240 hc        1 MOL     -0.046749
    164 H75        -5.5980   -4.5550    4.2820 hc        1 MOL     -0.046749
    165 H76        -4.9290   -1.8860    4.4060 hc        1 MOL      0.041383
    166 H77        -4.6470   -2.1370    2.6390 hc        1 MOL      0.041383
    167 N15        -8.8950   -1.7200    3.9560 n         1 MOL     -0.278190
    168 C54        -9.4770   -0.5150    4.6850 c3        1 MOL     -0.144446
    169 H78        -9.9340    0.1610    3.9610 h1        1 MOL      0.093564
    170 H79       -10.2330   -0.8500    5.3960 h1        1 MOL      0.093564
    171 H80        -8.6820    0.0080    5.2170 h1        1 MOL      0.093564
    172 H81        -9.4320   -2.1090    3.1930 hn        1 MOL      0.209835
    173 Ca1        -1.0380   -1.3580    1.2380 Ca        1 MOL      1.776194
    174 O23        -0.8130    0.3780    3.4090 oh        1 MOL     -0.915154
    175 H82        -0.2810    1.1670    3.4000 ho        1 MOL      0.442850
    176 H83        -0.8480    0.1220    4.3350 ho        1 MOL      0.442850
    177 O24        -3.5590   -1.0930    0.6050 oh        1 MOL     -0.915154
    178 H84        -4.1500   -1.2130    1.3520 ho        1 MOL      0.442850
    179 H85        -3.9870   -0.4560    0.0400 ho        1 MOL      0.442850
    180 O25        -1.7540   -3.8250    0.5400 oh        1 MOL     -0.915154
    181 H86        -1.4070   -4.5070   -0.0260 ho        1 MOL      0.442850
    182 H87        -2.4570   -4.2490    1.0330 ho        1 MOL      0.442850
    183 O26         0.6300   -3.4590    1.9570 oh        1 MOL     -0.915154
    184 H88         0.6090   -4.4020    1.7950 ho        1 MOL      0.442850
    185 H89         1.1850   -3.3530    2.7240 ho        1 MOL      0.442850
@<TRIPOS>BOND
     1    1    2 1   
     2    1    4 1   
     3    1    5 1   
     4    1    6 1   
     5    2    3 2   
     6    2    7 1   
     7    7    8 1   
     8    7   15 1   
     9    8    9 1   
    10    8   11 1   
    11    8   16 1   
    12    9   10 2   
    13    9   19 1   
    14   11   12 1   
    15   11   17 1   
    16   11   18 1   
    17   12   13 1   
    18   12   14 1   
    19   19   20 1   
    20   19   28 1   
    21   20   21 1   
    22   20   23 1   
    23   20   29 1   
    24   21   22 2   
    25   21   41 1   
    26   23   24 1   
    27   23   30 1   
    28   23   31 1   
    29   24   25 1   
    30   24   32 1   
    31   24   33 1   
    32   25   26 1   
    33   25   34 1   
    34   25   35 1   
    35   26   27 1   
    36   26   36 1   
    37   26   37 1   
    38   27   38 1   
    39   27   39 1   
    40   27   40 1   
    41   41   42 1   
    42   41   49 1   
    43   42   43 1   
    44   42   45 1   
    45   42   50 1   
    46   43   44 2   
    47   43   53 1   
    48   45   46 1   
    49   45   51 1   
    50   45   52 1   
    51   46   47 1   
    52   46   48 1   
    53   53   54 1   
    54   53   57 1   
    55   54   55 1   
    56   54   58 1   
    57   54   59 1   
    58   55   56 2   
    59   55   60 1   
    60   60   61 1   
    61   60   68 1   
    62   61   62 1   
    63   61   64 1   
    64   61   69 1   
    65   62   63 2   
    66   62   74 1   
    67   64   65 1   
    68   64   70 1   
    69   64   71 1   
    70   65   66 1   
    71   65   67 2   
    72   66   72 1   
    73   66   73 1   
    74   74   75 1   
    75   74   78 1   
    76   75   76 1   
    77   75   79 1   
    78   75   80 1   
    79   76   77 2   
    80   76   81 1   
    81   81   82 1   
    82   81   93 1   
    83   82   83 1   
    84   82   85 1   
    85   82   94 1   
    86   83   84 2   
    87   83  102 1   
    88   85   86 1   
    89   85   95 1   
    90   85   96 1   
    91   86   87 ar  
    92   86   88 ar  
    93   87   89 ar  
    94   87   97 1   
    95   88   90 ar  
    96   88   98 1   
    97   89   91 ar  
    98   89   99 1   
    99   90   91 ar  
   100   90  100 1   
   101   91   92 1   
   102   92  101 1   
   103  102  103 1   
   104  102  110 1   
   105  103  104 1   
   106  103  106 1   
   107  103  111 1   
   108  104  105 2   
   109  104  121 1   
   110  106  107 1   
   111  106  108 1   
   112  106  112 1   
   113  107  109 1   
   114  107  113 1   
   115  107  114 1   
   116  108  115 1   
   117  108  116 1   
   118  108  117 1   
   119  109  118 1   
   120  109  119 1   
   121  109  120 1   
   122  121  122 1   
   123  121  127 1   
   124  122  123 1   
   125  122  125 1   
   126  122  128 1   
   127  123  124 2   
   128  123  132 1   
   129  125  126 1   
   130  125  129 1   
   131  125  130 1   
   132  126  131 1   
   133  132  133 1   
   134  132  137 1   
   135  133  134 1   
   136  133  136 1   
   137  133  138 1   
   138  134  135 2   
   139  134  142 1   
   140  136  139 1   
   141  136  140 1   
   142  136  141 1   
   143  142  143 1   
   144  142  147 1   
   145  143  144 1   
   146  143  146 1   
   147  143  148 1   
   148  144  145 2   
   149  144  152 1   
   150  146  149 1   
   151  146  150 1   
   152  146  151 1   
   153  152  153 1   
   154  152  161 1   
   155  153  154 1   
   156  153  156 1   
   157  153  162 1   
   158  154  155 2   
   159  154  167 1   
   160  156  157 1   
   161  156  163 1   
   162  156  164 1   
   163  157  158 1   
   164  157  165 1   
   165  157  166 1   
   166  158  159 1   
   167  158  160 1   
   168  167  168 1   
   169  167  172 1   
   170  168  169 1   
   171  168  170 1   
   172  168  171 1   
   173  174  175 1   
   174  174  176 1   
   175  177  178 1   
   176  177  179 1   
   177  180  181 1   
   178  180  182 1   
   179  183  184 1   
   180  183  185 1   
@<TRIPOS>SUBSTRUCTURE
     1 MOL         1 TEMP              0 ****  ****    0 ROOT
