@<TRIPOS>MOLECULE
MOL
  178   175     1     0     0
SMALL
resp


@<TRIPOS>ATOM
      1 C1         -3.0380   -1.5140    4.9500 c3        1 MOL     -0.478215
      2 C2         -1.6090   -0.9900    4.5380 c         1 MOL      0.724250
      3 O1         -1.3960    0.1580    4.2650 o         1 MOL     -0.614827
      4 H1         -3.3920   -2.2280    4.2060 hc        1 MOL      0.119407
      5 H2         -2.9790   -2.0040    5.9220 hc        1 MOL      0.119407
      6 H3         -3.7310   -0.6760    5.0070 hc        1 MOL      0.119407
      7 N1         -0.6460   -1.9160    4.3900 n         1 MOL     -0.458455
      8 C3          0.7870   -1.5060    4.1760 c3        1 MOL      0.057621
      9 C4          1.4980   -2.3730    3.0820 c         1 MOL      0.654360
     10 O2          2.4660   -1.9090    2.5100 o         1 MOL     -0.545451
     11 C5          1.6030   -1.6850    5.4190 c3        1 MOL     -0.181581
     12 C6          1.4630   -3.0270    6.2490 c         1 MOL      0.680599
     13 O3          0.5810   -3.9120    5.9770 o         1 MOL     -0.705648
     14 O4          2.2340   -3.1230    7.2250 o         1 MOL     -0.705648
     15 H4         -0.7680   -2.8910    4.6060 hn        1 MOL      0.238877
     16 H5          0.8340   -0.4810    3.8160 h1        1 MOL      0.068438
     17 H6          1.2380   -0.9220    6.1120 hc        1 MOL      0.036716
     18 H7          2.6300   -1.3600    5.2800 hc        1 MOL      0.036716
     19 N2          0.9890   -3.5480    2.8280 n         1 MOL     -0.534937
     20 C7          1.4010   -4.5810    1.9070 c3        1 MOL      0.434902
     21 C8          1.6670   -4.0530    0.4710 c         1 MOL      0.217930
     22 O5          1.3670   -2.9340    0.1110 o         1 MOL     -0.426580
     23 C9          2.5490   -5.3800    2.5900 c3        1 MOL     -0.457829
     24 H8          0.0590   -3.6570    3.2230 hn        1 MOL      0.238006
     25 H9          0.5400   -5.2230    1.7130 h1        1 MOL      0.017221
     26 H10         3.4320   -4.7570    2.4940 hc        1 MOL      0.110332
     27 H11         2.2710   -5.5260    3.6350 hc        1 MOL      0.110332
     28 H12         2.5230   -6.3500    2.0880 hc        1 MOL      0.110332
     29 N3          2.2540   -4.8170   -0.3850 n         1 MOL     -0.308013
     30 C10         2.1570   -4.6970   -1.8020 c3        1 MOL     -0.019925
     31 C11         3.4170   -4.6340   -2.5950 c         1 MOL      0.383227
     32 O6          3.4240   -4.6280   -3.8660 o         1 MOL     -0.511475
     33 C12         1.1350   -5.7180   -2.3120 c3        1 MOL     -0.125380
     34 C13        -0.2680   -5.4020   -1.7400 c         1 MOL      0.640240
     35 O7         -0.8300   -4.4310   -2.3370 o         1 MOL     -0.704411
     36 O8         -0.7980   -5.9170   -0.7110 o         1 MOL     -0.704411
     37 H13         2.6640   -5.6540    0.0120 hn        1 MOL      0.219348
     38 H14         1.6850   -3.7300   -1.9710 h1        1 MOL      0.158439
     39 H15         1.4910   -6.7040   -2.0230 hc        1 MOL      0.026182
     40 H16         0.9680   -5.7110   -3.3950 hc        1 MOL      0.026182
     41 N4          4.5580   -4.6690   -2.0140 n         1 MOL     -0.109091
     42 C14         5.9230   -4.7270   -2.5880 c3        1 MOL     -0.294590
     43 C15         6.4160   -3.3480   -3.1580 c         1 MOL      0.638674
     44 O9          7.1700   -3.2690   -4.1800 o         1 MOL     -0.525462
     45 H17         4.5880   -4.5980   -1.0060 hn        1 MOL      0.197446
     46 H18         5.9130   -5.4020   -3.4500 h1        1 MOL      0.121032
     47 H19         6.6900   -5.0520   -1.8840 h1        1 MOL      0.121032
     48 N5          5.9530   -2.2130   -2.4830 n         1 MOL     -0.611815
     49 C16         6.1130   -0.7820   -2.7810 c3        1 MOL      0.338980
     50 C17         6.8070    0.0480   -1.6680 c         1 MOL      0.388761
     51 O10         7.3080   -0.4690   -0.6570 o         1 MOL     -0.515032
     52 C18         4.6770   -0.2490   -3.0990 c3        1 MOL     -0.138281
     53 C19         4.0700   -0.8980   -4.3010 c         1 MOL      0.557844
     54 N6          2.8710   -1.3700   -4.2650 n         1 MOL     -0.701598
     55 O11         4.7010   -0.9750   -5.3580 o         1 MOL     -0.557036
     56 H20         5.2730   -2.4190   -1.7590 hn        1 MOL      0.307383
     57 H21         6.6200   -0.6270   -3.7330 h1        1 MOL     -0.002854
     58 H22         4.7230    0.8250   -3.2640 hc        1 MOL      0.053707
     59 H23         4.0050   -0.3720   -2.2470 hc        1 MOL      0.053707
     60 H24         2.3440   -1.4370   -3.4030 hn        1 MOL      0.357279
     61 H25         2.5320   -1.6140   -5.1890 hn        1 MOL      0.357279
     62 N7          6.6720    1.3490   -1.7250 n         1 MOL     -0.344231
     63 C20         6.6830    2.1980   -0.5150 c3        1 MOL     -0.130201
     64 C21         5.6770    3.3500   -0.6700 c         1 MOL      0.604526
     65 O12         4.9870    3.4380   -1.6630 o         1 MOL     -0.488102
     66 H26         6.5110    1.7930   -2.6180 hn        1 MOL      0.243622
     67 H27         7.6920    2.5030   -0.2300 h1        1 MOL      0.109893
     68 H28         6.3190    1.5550    0.2870 h1        1 MOL      0.109893
     69 N8          5.6290    4.2120    0.3650 n         1 MOL     -0.441043
     70 C22         4.7960    5.4360    0.3780 c3        1 MOL     -0.364384
     71 C23         3.3190    5.2080    0.7370 c         1 MOL      0.552326
     72 O13         2.7050    6.2760    1.0510 o         1 MOL     -0.585700
     73 C24         5.5560    6.4020    1.3280 c3        1 MOL      0.602156
     74 C25         5.5590    6.1090    2.7790 c3        1 MOL     -0.290994
     75 O14         6.9400    6.4780    0.9430 oh        1 MOL     -0.652018
     76 H29         6.3710    4.1610    1.0420 hn        1 MOL      0.229327
     77 H30         4.8000    5.8990   -0.6090 h1        1 MOL      0.177188
     78 H31         5.1360    7.4080    1.2850 h1        1 MOL     -0.003252
     79 H32         7.2620    5.6790    1.3700 ho        1 MOL      0.372359
     80 H33         4.8380    6.8110    3.1870 hc        1 MOL      0.059593
     81 H34         5.3340    5.0770    3.0620 hc        1 MOL      0.059593
     82 H35         6.4840    6.3800    3.2760 hc        1 MOL      0.059593
     83 N9          2.8330    4.0140    0.6670 n         1 MOL     -0.171736
     84 C26         1.5740    3.4860    1.3520 c3        1 MOL     -0.123079
     85 C27         1.0960    2.3020    0.5800 c         1 MOL      0.478930
     86 O15         1.9050    1.6110   -0.0830 o         1 MOL     -0.511467
     87 C28         1.7560    3.1220    2.8830 c3        1 MOL      0.081393
     88 C29         2.8950    2.0910    3.2510 c3        1 MOL      0.410889
     89 C30         1.9310    4.4010    3.7300 c3        1 MOL     -0.238421
     90 C31         3.1390    1.8870    4.7240 c3        1 MOL     -0.270367
     91 H36         3.5790    3.3510    0.4930 hn        1 MOL      0.150793
     92 H37         0.8770    4.3080    1.2230 h1        1 MOL      0.106760
     93 H38         0.8150    2.6880    3.2150 hc        1 MOL      0.027256
     94 H39         3.8400    2.4480    2.8160 hc        1 MOL     -0.080437
     95 H40         2.7630    1.0650    2.9200 hc        1 MOL     -0.080437
     96 H41         2.9390    4.7950    3.6460 hc        1 MOL      0.052100
     97 H42         1.3190    5.1990    3.2980 hc        1 MOL      0.052100
     98 H43         1.6100    4.3010    4.7670 hc        1 MOL      0.052100
     99 H44         2.1860    1.8370    5.2660 hc        1 MOL      0.044500
    100 H45         3.8510    1.0720    4.8700 hc        1 MOL      0.044500
    101 H46         3.6420    2.7650    5.1200 hc        1 MOL      0.044500
    102 N10        -0.2230    2.1050    0.6230 n         1 MOL     -0.582732
    103 C32        -0.9030    1.0270   -0.0830 c3        1 MOL      0.528554
    104 C33        -2.2110    1.4330   -0.8090 c         1 MOL      0.233424
    105 O16        -3.2810    0.9380   -0.4930 o         1 MOL     -0.322492
    106 C34        -1.1010   -0.1410    0.8760 c3        1 MOL     -0.146980
    107 C35        -1.6890   -1.4260    0.3110 c         1 MOL      0.697638
    108 O17        -1.7200   -1.6240   -0.9120 o         1 MOL     -0.738557
    109 O18        -2.1080   -2.1920    1.1660 o         1 MOL     -0.738557
    110 H47        -0.7780    2.7650    1.1400 hn        1 MOL      0.323271
    111 H48        -0.2910    0.6610   -0.9060 h1        1 MOL     -0.031308
    112 H49        -1.8830    0.1340    1.5830 hc        1 MOL      0.011909
    113 H50        -0.1800   -0.4330    1.3690 hc        1 MOL      0.011909
    114 N11        -2.1280    2.1700   -1.9190 n         1 MOL     -0.341842
    115 C36        -3.1700    2.6620   -2.7840 c3        1 MOL      0.238802
    116 C37        -4.5090    3.0440   -2.0890 c         1 MOL      0.218950
    117 O19        -4.4940    3.6380   -1.0140 o         1 MOL     -0.428117
    118 C38        -2.5940    3.9100   -3.5120 c3        1 MOL     -0.192280
    119 C39        -1.6290    4.7920   -2.6350 ca        1 MOL      0.067790
    120 C40        -2.1590    5.8560   -1.8420 ca        1 MOL     -0.207281
    121 C41        -0.2480    4.4900   -2.6540 ca        1 MOL     -0.207281
    122 C42        -1.2380    6.5520   -1.0210 ca        1 MOL     -0.062426
    123 C43         0.6560    5.2310   -1.9070 ca        1 MOL     -0.062426
    124 C44         0.1940    6.2280   -1.0580 ca        1 MOL     -0.159025
    125 H51        -1.1740    2.4160   -2.1420 hn        1 MOL      0.236323
    126 H52        -3.3940    1.9240   -3.5510 h1        1 MOL     -0.005036
    127 H53        -3.3840    4.5610   -3.9010 hc        1 MOL      0.068256
    128 H54        -2.0180    3.6140   -4.3900 hc        1 MOL      0.068256
    129 H55        -3.2280    6.0160   -1.7950 ha        1 MOL      0.143658
    130 H56         0.1470    3.6350   -3.1800 ha        1 MOL      0.143658
    131 H57        -1.4670    7.4500   -0.4600 ha        1 MOL      0.094936
    132 H58         1.7150    5.0550   -1.9690 ha        1 MOL      0.094936
    133 H59         0.8870    6.7700   -0.4330 ha        1 MOL      0.133132
    134 N12        -5.6870    2.6860   -2.7060 n         1 MOL      0.014066
    135 C45        -7.0140    2.9600   -2.1580 c3        1 MOL     -0.083169
    136 C46        -7.2130    2.3410   -0.7550 c         1 MOL      0.342064
    137 O20        -8.0980    2.8540   -0.0730 o         1 MOL     -0.482826
    138 C47        -7.9990    2.2630   -3.1880 c3        1 MOL     -0.009897
    139 C48        -7.2930    2.6430   -4.5260 c3        1 MOL     -0.113657
    140 C49        -5.7850    2.3530   -4.1460 c3        1 MOL      0.082433
    141 H60        -7.1000    4.0360   -1.9950 h1        1 MOL      0.084862
    142 H61        -7.9850    1.1970   -2.9410 hc        1 MOL      0.042325
    143 H62        -9.0230    2.6300   -3.1770 hc        1 MOL      0.042325
    144 H63        -7.5530    1.8780   -5.2550 hc        1 MOL      0.036246
    145 H64        -7.4650    3.6440   -4.9240 hc        1 MOL      0.036246
    146 H65        -5.5630    1.2860   -4.2450 h1        1 MOL      0.010489
    147 H66        -5.1270    2.9700   -4.7650 h1        1 MOL      0.010489
    148 N13        -6.4600    1.2550   -0.3440 n         1 MOL     -0.003351
    149 C50        -6.7000    0.6260    0.9300 c3        1 MOL     -0.321744
    150 C51        -6.0900    1.5260    2.0250 c         1 MOL      0.487896
    151 O21        -6.8030    1.9250    2.9260 o         1 MOL     -0.532671
    152 C52        -5.9810   -0.7830    0.9550 c3        1 MOL      0.263242
    153 C53        -6.5050   -1.7840   -0.0210 c3        1 MOL     -0.304176
    154 C54        -5.5400   -2.9400   -0.1640 c         1 MOL      0.773492
    155 O22        -5.0070   -3.0870   -1.3120 o         1 MOL     -0.773226
    156 O23        -5.0110   -3.7000    0.7000 o         1 MOL     -0.773226
    157 H67        -5.7400    0.8570   -0.9160 hn        1 MOL      0.101295
    158 H68        -7.7640    0.5050    1.1340 h1        1 MOL      0.123339
    159 H69        -5.8620   -1.2320    1.9390 hc        1 MOL     -0.006033
    160 H70        -4.9450   -0.6000    0.6860 hc        1 MOL     -0.006033
    161 H71        -6.7920   -1.4220   -1.0050 hc        1 MOL      0.040509
    162 H72        -7.4080   -2.0870    0.5170 hc        1 MOL      0.040509
    163 N14        -4.8440    2.0610    1.8740 n         1 MOL     -0.211832
    164 C55        -4.1990    3.0510    2.7900 c3        1 MOL     -0.198084
    165 H73        -3.3210    3.4770    2.3040 h1        1 MOL      0.086362
    166 H74        -4.9070    3.8460    3.0230 h1        1 MOL      0.086362
    167 H75        -3.8980    2.5510    3.7110 h1        1 MOL      0.086362
    168 H76        -4.2490    1.8530    1.0850 hn        1 MOL      0.194466
    169 Ca1        -2.7400   -4.0870   -0.5700 Ca        1 MOL      1.774427
    170 O24        -2.2080   -4.6380    2.0260 oh        1 MOL     -0.817913
    171 H77        -2.0680   -3.6930    2.0550 ho        1 MOL      0.395287
    172 H78        -1.8420   -4.9680    2.8490 ho        1 MOL      0.395287
    173 O25        -4.0870   -6.3930   -0.7420 oh        1 MOL     -0.817913
    174 H79        -3.8270   -7.3010   -0.8950 ho        1 MOL      0.395287
    175 H80        -5.0310   -6.4270   -0.6280 ho        1 MOL      0.395287
    176 O26        -3.3770   -4.8360   -3.0890 oh        1 MOL     -0.817913
    177 H81        -2.7590   -5.3470   -3.6210 ho        1 MOL      0.395287
    178 H82        -4.1840   -4.8330   -3.5910 ho        1 MOL      0.395287
@<TRIPOS>BOND
     1    1    2 1   
     2    1    4 1   
     3    1    5 1   
     4    1    6 1   
     5    2    3 2   
     6    2    7 1   
     7    7    8 1   
     8    7   15 1   
     9    8    9 1   
    10    8   11 1   
    11    8   16 1   
    12    9   10 2   
    13    9   19 1   
    14   11   12 1   
    15   11   17 1   
    16   11   18 1   
    17   12   13 1   
    18   12   14 1   
    19   19   20 1   
    20   19   24 1   
    21   20   21 1   
    22   20   23 1   
    23   20   25 1   
    24   21   22 2   
    25   21   29 1   
    26   23   26 1   
    27   23   27 1   
    28   23   28 1   
    29   29   30 1   
    30   29   37 1   
    31   30   31 1   
    32   30   33 1   
    33   30   38 1   
    34   31   32 2   
    35   31   41 1   
    36   33   34 1   
    37   33   39 1   
    38   33   40 1   
    39   34   35 1   
    40   34   36 1   
    41   41   42 1   
    42   41   45 1   
    43   42   43 1   
    44   42   46 1   
    45   42   47 1   
    46   43   44 2   
    47   43   48 1   
    48   48   49 1   
    49   48   56 1   
    50   49   50 1   
    51   49   52 1   
    52   49   57 1   
    53   50   51 2   
    54   50   62 1   
    55   52   53 1   
    56   52   58 1   
    57   52   59 1   
    58   53   54 1   
    59   53   55 2   
    60   54   60 1   
    61   54   61 1   
    62   62   63 1   
    63   62   66 1   
    64   63   64 1   
    65   63   67 1   
    66   63   68 1   
    67   64   65 2   
    68   64   69 1   
    69   69   70 1   
    70   69   76 1   
    71   70   71 1   
    72   70   73 1   
    73   70   77 1   
    74   71   72 2   
    75   71   83 1   
    76   73   74 1   
    77   73   75 1   
    78   73   78 1   
    79   74   80 1   
    80   74   81 1   
    81   74   82 1   
    82   75   79 1   
    83   83   84 1   
    84   83   91 1   
    85   84   85 1   
    86   84   87 1   
    87   84   92 1   
    88   85   86 2   
    89   85  102 1   
    90   87   88 1   
    91   87   89 1   
    92   87   93 1   
    93   88   90 1   
    94   88   94 1   
    95   88   95 1   
    96   89   96 1   
    97   89   97 1   
    98   89   98 1   
    99   90   99 1   
   100   90  100 1   
   101   90  101 1   
   102  102  103 1   
   103  102  110 1   
   104  103  104 1   
   105  103  106 1   
   106  103  111 1   
   107  104  105 2   
   108  104  114 1   
   109  106  107 1   
   110  106  112 1   
   111  106  113 1   
   112  107  108 1   
   113  107  109 1   
   114  114  115 1   
   115  114  125 1   
   116  115  116 1   
   117  115  118 1   
   118  115  126 1   
   119  116  117 2   
   120  116  134 1   
   121  118  119 1   
   122  118  127 1   
   123  118  128 1   
   124  119  120 ar  
   125  119  121 ar  
   126  120  122 ar  
   127  120  129 1   
   128  121  123 ar  
   129  121  130 1   
   130  122  124 ar  
   131  122  131 1   
   132  123  124 ar  
   133  123  132 1   
   134  124  133 1   
   135  134  135 1   
   136  134  140 1   
   137  135  136 1   
   138  135  138 1   
   139  135  141 1   
   140  136  137 2   
   141  136  148 1   
   142  138  139 1   
   143  138  142 1   
   144  138  143 1   
   145  139  140 1   
   146  139  144 1   
   147  139  145 1   
   148  140  146 1   
   149  140  147 1   
   150  148  149 1   
   151  148  157 1   
   152  149  150 1   
   153  149  152 1   
   154  149  158 1   
   155  150  151 2   
   156  150  163 1   
   157  152  153 1   
   158  152  159 1   
   159  152  160 1   
   160  153  154 1   
   161  153  161 1   
   162  153  162 1   
   163  154  155 1   
   164  154  156 1   
   165  163  164 1   
   166  163  168 1   
   167  164  165 1   
   168  164  166 1   
   169  164  167 1   
   170  170  171 1   
   171  170  172 1   
   172  173  174 1   
   173  173  175 1   
   174  176  177 1   
   175  176  178 1   
@<TRIPOS>SUBSTRUCTURE
     1 MOL         1 TEMP              0 ****  ****    0 ROOT
