@<TRIPOS>MOLECULE
MOL
  192   187     1     0     0
SMALL
resp


@<TRIPOS>ATOM
      1 C1          5.2820    4.2370   -3.9790 c3        1 MOL     -0.483402
      2 C2          5.8130    3.4360   -2.7770 c         1 MOL      0.933206
      3 O1          5.0770    3.1810   -1.7960 o         1 MOL     -0.678124
      4 H1          6.1120    4.7410   -4.4750 hc        1 MOL      0.115899
      5 H2          4.7960    3.5610   -4.6810 hc        1 MOL      0.115899
      6 H3          4.5630    4.9800   -3.6320 hc        1 MOL      0.115899
      7 N1          6.9790    2.8010   -2.8910 n         1 MOL     -0.807380
      8 C3          7.4570    1.6750   -2.0930 c3        1 MOL      0.378372
      9 C4          6.3130    0.6560   -1.8590 c         1 MOL      0.226536
     10 O2          5.6950    0.5230   -0.7830 o         1 MOL     -0.282011
     11 C5          8.0860    2.0450   -0.7910 c3        1 MOL     -0.064323
     12 C6          7.5620    3.2480   -0.0590 c         1 MOL      0.709660
     13 O3          6.6110    3.0860    0.7740 o         1 MOL     -0.724996
     14 O4          8.0780    4.3700   -0.2750 o         1 MOL     -0.724996
     15 H4          7.3910    2.8460   -3.8010 hn        1 MOL      0.336777
     16 H5          8.2050    1.1510   -2.6970 h1        1 MOL      0.012771
     17 H6          9.1310    2.2920   -0.9740 hc        1 MOL     -0.010300
     18 H7          8.1410    1.1830   -0.1170 hc        1 MOL     -0.010300
     19 N2          5.8280    0.0290   -2.9750 n         1 MOL     -0.452232
     20 C7          4.8290   -1.0820   -2.9890 c3        1 MOL      0.214978
     21 C8          5.2960   -2.3610   -2.3210 c         1 MOL      0.305800
     22 O5          5.6180   -3.2750   -3.0800 o         1 MOL     -0.540682
     23 C9          3.3510   -0.7570   -2.4960 c3        1 MOL      0.348478
     24 C10         2.4330   -1.9240   -2.9760 c3        1 MOL     -0.047030
     25 C11         2.8110    0.5840   -3.1080 c3        1 MOL     -0.056220
     26 C12         2.4560   -2.5100   -4.4080 c3        1 MOL     -0.270607
     27 H8          6.1330    0.4190   -3.8490 hn        1 MOL      0.254957
     28 H9          4.6200   -1.3250   -4.0370 h1        1 MOL     -0.005226
     29 H10         3.2900   -0.7170   -1.4130 hc        1 MOL     -0.362927
     30 H11         1.4150   -1.6130   -2.7360 hc        1 MOL      0.085162
     31 H12         2.6360   -2.7760   -2.3350 hc        1 MOL      0.085162
     32 H13         1.7790    0.7540   -2.7970 hc        1 MOL     -0.016383
     33 H14         3.3920    1.4580   -2.8190 hc        1 MOL     -0.016383
     34 H15         2.9780    0.5000   -4.1770 hc        1 MOL     -0.016383
     35 H16         2.3470   -1.6850   -5.1130 hc        1 MOL      0.051016
     36 H17         3.3840   -3.0620   -4.5360 hc        1 MOL      0.051016
     37 H18         1.6170   -3.1860   -4.5660 hc        1 MOL      0.051016
     38 N3          5.5560   -2.3170   -0.9830 n         1 MOL      0.020833
     39 C13         6.2380   -3.4050   -0.2560 c3        1 MOL     -0.025235
     40 C14         5.3950   -4.6710    0.0660 c         1 MOL      0.469556
     41 O6          5.9190   -5.7890    0.0650 o         1 MOL     -0.568650
     42 C15         6.8080   -2.8100    1.0040 c3        1 MOL     -0.143950
     43 C16         7.8440   -1.7150    0.8450 c         1 MOL      0.672587
     44 O7          8.6820   -1.7610   -0.0580 o         1 MOL     -0.695424
     45 O8          7.7740   -0.7470    1.6650 o         1 MOL     -0.695424
     46 H19         5.1320   -1.5190   -0.5440 hn        1 MOL      0.068258
     47 H20         7.0330   -3.7920   -0.8800 h1        1 MOL      0.059918
     48 H21         7.1650   -3.5380    1.7300 hc        1 MOL      0.072816
     49 H22         5.9570   -2.4250    1.5670 hc        1 MOL      0.072816
     50 N4          4.1680   -4.5640    0.5550 n         1 MOL     -0.402024
     51 C17         3.3020   -3.4320    0.9500 c3        1 MOL      0.046330
     52 C18         2.3770   -3.7170    2.1580 c         1 MOL      0.714708
     53 O9          2.0410   -4.8570    2.3390 o         1 MOL     -0.587790
     54 H23         3.7890   -5.4260    0.9230 hn        1 MOL      0.256212
     55 H24         2.6660   -3.1550    0.1110 h1        1 MOL      0.006299
     56 H25         3.9240   -2.5440    1.0810 h1        1 MOL      0.006299
     57 N5          1.9870   -2.7740    3.0350 n         1 MOL     -0.507912
     58 C19         2.3240   -1.3360    3.0220 c3        1 MOL     -0.042277
     59 C20         2.2850   -0.6130    1.6190 c         1 MOL      0.089496
     60 O10         3.2520   -0.1680    1.0900 o         1 MOL     -0.358160
     61 C21         3.6560   -1.1420    3.8000 c3        1 MOL     -0.323767
     62 C22         3.7590   -2.0500    5.0580 c         1 MOL      0.700337
     63 O11         3.2180   -1.7150    6.1290 o         1 MOL     -0.721523
     64 O12         4.4280   -3.1260    4.9130 o         1 MOL     -0.721523
     65 H26         1.4280   -3.0290    3.8370 hn        1 MOL      0.350122
     66 H27         1.6210   -0.8860    3.7200 h1        1 MOL      0.126808
     67 H28         3.6200   -0.0830    4.0620 hc        1 MOL      0.107012
     68 H29         4.4350   -1.2880    3.0590 hc        1 MOL      0.107012
     69 N6          1.1480   -0.5910    0.9070 n         1 MOL      0.038130
     70 C23        -0.1770   -1.1370    1.2450 c3        1 MOL     -0.054815
     71 C24        -0.4880   -2.3350    0.3200 c         1 MOL      0.555115
     72 O13         0.1620   -2.5230   -0.7390 o         1 MOL     -0.575791
     73 H30         1.1870   -0.0820    0.0410 hn        1 MOL      0.256580
     74 H31        -1.0050   -0.4340    1.0820 h1        1 MOL      0.051975
     75 H32        -0.1820   -1.4720    2.2820 h1        1 MOL      0.051975
     76 N7         -1.6250   -3.0230    0.5470 n         1 MOL     -0.524195
     77 C25        -1.9970   -4.2720    0.0120 c3        1 MOL      0.090368
     78 C26        -2.8180   -4.1800   -1.2720 c         1 MOL      0.346747
     79 O14        -3.4430   -5.1850   -1.6520 o         1 MOL     -0.505201
     80 C27        -2.6430   -5.1350    1.1470 c3        1 MOL     -0.076013
     81 C28        -1.6190   -5.6380    2.2790 c3        1 MOL     -0.038036
     82 C29        -1.1420   -4.5770    3.2590 c         1 MOL      0.560273
     83 N8         -0.2500   -4.9670    4.1410 n         1 MOL     -0.740897
     84 O15        -1.7440   -3.4640    3.2970 o         1 MOL     -0.557945
     85 H33        -2.0090   -2.8180    1.4520 hn        1 MOL      0.288217
     86 H34        -1.0510   -4.7490   -0.2710 h1        1 MOL      0.094650
     87 H35        -3.0630   -6.0080    0.6420 hc        1 MOL      0.039896
     88 H36        -3.4500   -4.6150    1.6580 hc        1 MOL      0.039896
     89 H37        -0.7220   -6.0590    1.8370 hc        1 MOL      0.026412
     90 H38        -2.1480   -6.4410    2.7980 hc        1 MOL      0.026412
     91 H39         0.0030   -5.9440    4.2430 hn        1 MOL      0.377406
     92 H40        -0.0200   -4.2660    4.8300 hn        1 MOL      0.377406
     93 N9         -2.8080   -3.0060   -1.9130 n         1 MOL     -0.141237
     94 C30        -3.4390   -2.8940   -3.2690 c3        1 MOL     -0.021451
     95 C31        -4.8260   -2.2790   -3.2900 c         1 MOL      0.351182
     96 O16        -5.5200   -2.3010   -4.3330 o         1 MOL     -0.565002
     97 C32        -2.5480   -1.9660   -4.1500 c3        1 MOL      0.331542
     98 C33        -1.2170   -2.5820   -4.4400 c3        1 MOL     -0.264319
     99 C34        -2.2200   -0.5830   -3.6030 c3        1 MOL     -0.264319
    100 H41        -2.1810   -2.2880   -1.5760 hn        1 MOL      0.152616
    101 H42        -3.4850   -3.8080   -3.8640 h1        1 MOL      0.083162
    102 H43        -3.0100   -1.8660   -5.1330 hc        1 MOL     -0.034822
    103 H44        -0.7610   -2.9200   -3.5040 hc        1 MOL      0.053561
    104 H45        -1.3900   -3.5280   -4.9510 hc        1 MOL      0.053561
    105 H46        -0.5830   -1.9510   -5.0620 hc        1 MOL      0.053561
    106 H47        -3.1710   -0.1220   -3.3600 hc        1 MOL      0.053561
    107 H48        -1.7120   -0.6060   -2.6380 hc        1 MOL      0.053561
    108 H49        -1.6560   -0.0620   -4.3740 hc        1 MOL      0.053561
    109 N10        -5.2420   -1.5810   -2.2440 n         1 MOL     -0.052011
    110 C35        -6.5460   -0.9500   -2.1990 c3        1 MOL     -0.096642
    111 C36        -6.5080    0.3960   -1.5150 c         1 MOL      0.757327
    112 O17        -6.9850    1.3750   -2.0370 o         1 MOL     -0.596864
    113 C37        -7.5620   -1.8250   -1.3820 c3        1 MOL     -0.583557
    114 C38        -7.5320   -3.2990   -1.7870 c         1 MOL      0.823484
    115 N11        -7.8500   -3.5690   -3.0240 n         1 MOL     -0.876182
    116 O18        -7.2350   -4.2110   -1.0260 o         1 MOL     -0.571144
    117 H50        -4.5950   -1.4180   -1.4830 hn        1 MOL      0.098769
    118 H51        -6.9640   -0.8080   -3.2040 h1        1 MOL      0.090596
    119 H52        -8.5740   -1.4110   -1.4500 hc        1 MOL      0.189143
    120 H53        -7.1480   -1.8210   -0.3790 hc        1 MOL      0.189143
    121 H54        -7.6720   -2.8190   -3.6760 hn        1 MOL      0.385993
    122 H55        -7.7060   -4.4570   -3.4780 hn        1 MOL      0.385993
    123 N12        -5.8170    0.5510   -0.4000 n         1 MOL     -0.650076
    124 C39        -5.9960    1.7170    0.4500 c3        1 MOL      0.195345
    125 C40        -4.6990    2.4800    0.8930 c         1 MOL      0.534083
    126 O19        -3.6970    1.7920    0.9830 o         1 MOL     -0.479941
    127 C41        -6.7890    1.3300    1.7030 c3        1 MOL     -0.188804
    128 C42        -8.0650    0.5910    1.4080 ca        1 MOL      0.028402
    129 C43        -9.0210    1.0070    0.4640 ca        1 MOL     -0.092442
    130 C44        -8.3540   -0.5290    2.1840 ca        1 MOL     -0.092442
    131 C45       -10.1960    0.3070    0.3260 ca        1 MOL     -0.339461
    132 C46        -9.5720   -1.2570    1.9940 ca        1 MOL     -0.339461
    133 C47       -10.4740   -0.8570    1.0210 ca        1 MOL      0.405807
    134 O20       -11.5610   -1.5730    0.7610 oh        1 MOL     -0.525781
    135 H56        -5.4920   -0.2800    0.0800 hn        1 MOL      0.371245
    136 H57        -6.5890    2.4600   -0.0760 h1        1 MOL      0.042791
    137 H58        -7.1170    2.2210    2.2320 hc        1 MOL      0.082858
    138 H59        -6.1940    0.7080    2.3590 hc        1 MOL      0.082858
    139 H60        -8.7270    1.8700   -0.1130 ha        1 MOL      0.126870
    140 H61        -7.6540   -0.8050    2.9610 ha        1 MOL      0.126870
    141 H62       -10.9730    0.5270   -0.3930 ha        1 MOL      0.146877
    142 H63        -9.8060   -2.1250    2.5950 ha        1 MOL      0.146877
    143 H64       -11.7910   -2.1290    1.5140 ho        1 MOL      0.382292
    144 N13        -4.7690    3.8330    0.9780 n         1 MOL     -0.575380
    145 C48        -3.6630    4.7270    1.4300 c3        1 MOL      0.170330
    146 C49        -2.3890    4.6750    0.5710 c         1 MOL      0.222373
    147 O21        -1.3270    5.1900    0.9680 o         1 MOL     -0.431223
    148 C50        -3.4060    4.5390    2.8850 c3        1 MOL      0.415278
    149 C51        -4.4690    5.1390    3.7610 c3        1 MOL     -0.458878
    150 C52        -4.1690    4.9410    5.2390 c         1 MOL      0.805989
    151 O22        -4.9530    5.4690    6.0660 o         1 MOL     -0.758887
    152 O23        -3.2050    4.2810    5.6790 o         1 MOL     -0.758887
    153 H65        -5.6620    4.2230    0.7010 hn        1 MOL      0.290751
    154 H66        -3.9590    5.7730    1.3540 h1        1 MOL      0.022257
    155 H67        -2.4490    4.9850    3.1330 hc        1 MOL     -0.041552
    156 H68        -3.3800    3.4590    3.0480 hc        1 MOL     -0.041552
    157 H69        -5.4600    4.8350    3.4240 hc        1 MOL      0.039169
    158 H70        -4.4330    6.2230    3.6420 hc        1 MOL      0.039169
    159 N14        -2.4280    4.1220   -0.6520 n         1 MOL     -0.267978
    160 C53        -1.3270    4.1870   -1.6640 c3        1 MOL     -0.215598
    161 C54        -1.5960    4.8870   -3.0180 c         1 MOL      0.457038
    162 O24        -0.6910    4.9940   -3.8120 o         1 MOL     -0.503117
    163 C55        -0.8900    2.7950   -2.0230 c3        1 MOL      0.039698
    164 C56        -0.4600    1.8910   -0.8820 c3        1 MOL     -0.179303
    165 C57         0.6370    2.3480    0.0600 c         1 MOL      0.764816
    166 O25         0.2960    2.7090    1.1830 o         1 MOL     -0.682924
    167 O26         1.8550    2.2570   -0.3060 o         1 MOL     -0.682924
    168 H71        -3.3050    3.8100   -1.0440 hn        1 MOL      0.233693
    169 H72        -0.4160    4.6120   -1.2300 h1        1 MOL      0.193221
    170 H73         0.0030    2.8440   -2.6450 hc        1 MOL      0.024810
    171 H74        -1.6120    2.2850   -2.6500 hc        1 MOL      0.024810
    172 H75        -0.2390    0.9080   -1.2810 hc        1 MOL      0.027081
    173 H76        -1.2500    1.8140   -0.1390 hc        1 MOL      0.027081
    174 N15        -2.8350    5.3910   -3.2260 n         1 MOL     -0.220979
    175 C58        -3.2370    6.1480   -4.3920 c3        1 MOL     -0.164264
    176 H77        -2.3660    6.6440   -4.8200 h1        1 MOL      0.081835
    177 H78        -3.6710    5.4750   -5.1310 h1        1 MOL      0.081835
    178 H79        -3.9750    6.8970   -4.1030 h1        1 MOL      0.081835
    179 H80        -3.4910    5.1750   -2.4910 hn        1 MOL      0.203757
    180 Ca1         4.2270    2.2030    0.7640 Ca        1 MOL      1.718076
    181 O27         2.2150    2.0740    2.6020 oh        1 MOL     -0.853477
    182 H81         1.4380    2.3580    2.1190 ho        1 MOL      0.406237
    183 H82         2.3580    2.7730    3.2490 ho        1 MOL      0.406237
    184 O28         4.6200    3.5160    3.0990 oh        1 MOL     -0.853477
    185 H83         4.1260    4.3250    2.9860 ho        1 MOL      0.406237
    186 H84         4.9640    3.5570    3.9840 ho        1 MOL      0.406237
    187 O29         5.6570    0.6400    2.5830 oh        1 MOL     -0.853477
    188 H85         6.5060    0.2760    2.3140 ho        1 MOL      0.406237
    189 H86         5.7130    0.6710    3.5380 ho        1 MOL      0.406237
    190 O30         3.8480    4.8000    0.3170 oh        1 MOL     -0.853477
    191 H87         2.9560    5.1600    0.2810 ho        1 MOL      0.406237
    192 H88         4.4030    5.5120   -0.0120 ho        1 MOL      0.406237
@<TRIPOS>BOND
     1    1    2 1   
     2    1    4 1   
     3    1    5 1   
     4    1    6 1   
     5    2    3 2   
     6    2    7 1   
     7    7    8 1   
     8    7   15 1   
     9    8    9 1   
    10    8   11 1   
    11    8   16 1   
    12    9   10 2   
    13    9   19 1   
    14   11   12 1   
    15   11   17 1   
    16   11   18 1   
    17   12   13 1   
    18   12   14 1   
    19   19   20 1   
    20   19   27 1   
    21   20   21 1   
    22   20   23 1   
    23   20   28 1   
    24   21   22 2   
    25   21   38 1   
    26   23   24 1   
    27   23   25 1   
    28   23   29 1   
    29   24   26 1   
    30   24   30 1   
    31   24   31 1   
    32   25   32 1   
    33   25   33 1   
    34   25   34 1   
    35   26   35 1   
    36   26   36 1   
    37   26   37 1   
    38   38   39 1   
    39   38   46 1   
    40   39   40 1   
    41   39   42 1   
    42   39   47 1   
    43   40   41 2   
    44   40   50 1   
    45   42   43 1   
    46   42   48 1   
    47   42   49 1   
    48   43   44 1   
    49   43   45 1   
    50   50   51 1   
    51   50   54 1   
    52   51   52 1   
    53   51   55 1   
    54   51   56 1   
    55   52   53 2   
    56   52   57 1   
    57   57   58 1   
    58   57   65 1   
    59   58   59 1   
    60   58   61 1   
    61   58   66 1   
    62   59   60 2   
    63   59   69 1   
    64   61   62 1   
    65   61   67 1   
    66   61   68 1   
    67   62   63 1   
    68   62   64 1   
    69   69   70 1   
    70   69   73 1   
    71   70   71 1   
    72   70   74 1   
    73   70   75 1   
    74   71   72 2   
    75   71   76 1   
    76   76   77 1   
    77   76   85 1   
    78   77   78 1   
    79   77   80 1   
    80   77   86 1   
    81   78   79 2   
    82   78   93 1   
    83   80   81 1   
    84   80   87 1   
    85   80   88 1   
    86   81   82 1   
    87   81   89 1   
    88   81   90 1   
    89   82   83 1   
    90   82   84 2   
    91   83   91 1   
    92   83   92 1   
    93   93   94 1   
    94   93  100 1   
    95   94   95 1   
    96   94   97 1   
    97   94  101 1   
    98   95   96 2   
    99   95  109 1   
   100   97   98 1   
   101   97   99 1   
   102   97  102 1   
   103   98  103 1   
   104   98  104 1   
   105   98  105 1   
   106   99  106 1   
   107   99  107 1   
   108   99  108 1   
   109  109  110 1   
   110  109  117 1   
   111  110  111 1   
   112  110  113 1   
   113  110  118 1   
   114  111  112 2   
   115  111  123 1   
   116  113  114 1   
   117  113  119 1   
   118  113  120 1   
   119  114  115 1   
   120  114  116 2   
   121  115  121 1   
   122  115  122 1   
   123  123  124 1   
   124  123  135 1   
   125  124  125 1   
   126  124  127 1   
   127  124  136 1   
   128  125  126 2   
   129  125  144 1   
   130  127  128 1   
   131  127  137 1   
   132  127  138 1   
   133  128  129 ar  
   134  128  130 ar  
   135  129  131 ar  
   136  129  139 1   
   137  130  132 ar  
   138  130  140 1   
   139  131  133 ar  
   140  131  141 1   
   141  132  133 ar  
   142  132  142 1   
   143  133  134 1   
   144  134  143 1   
   145  144  145 1   
   146  144  153 1   
   147  145  146 1   
   148  145  148 1   
   149  145  154 1   
   150  146  147 2   
   151  146  159 1   
   152  148  149 1   
   153  148  155 1   
   154  148  156 1   
   155  149  150 1   
   156  149  157 1   
   157  149  158 1   
   158  150  151 1   
   159  150  152 1   
   160  159  160 1   
   161  159  168 1   
   162  160  161 1   
   163  160  163 1   
   164  160  169 1   
   165  161  162 2   
   166  161  174 1   
   167  163  164 1   
   168  163  170 1   
   169  163  171 1   
   170  164  165 1   
   171  164  172 1   
   172  164  173 1   
   173  165  166 1   
   174  165  167 1   
   175  174  175 1   
   176  174  179 1   
   177  175  176 1   
   178  175  177 1   
   179  175  178 1   
   180  181  182 1   
   181  181  183 1   
   182  184  185 1   
   183  184  186 1   
   184  187  188 1   
   185  187  189 1   
   186  190  191 1   
   187  190  192 1   
@<TRIPOS>SUBSTRUCTURE
     1 MOL         1 TEMP              0 ****  ****    0 ROOT
