@<TRIPOS>MOLECULE
MOL
  181   177     1     0     0
SMALL
resp


@<TRIPOS>ATOM
      1 C1          3.4240   -1.5800    3.9930 c3        1 MOL     -0.440166
      2 C2          4.8180   -1.0720    3.4490 c         1 MOL      0.616859
      3 O1          4.9980    0.1170    3.3460 o         1 MOL     -0.599154
      4 H1          3.1700   -1.0380    4.9030 hc        1 MOL      0.121357
      5 H2          2.6540   -1.4070    3.2410 hc        1 MOL      0.121357
      6 H3          3.4860   -2.6460    4.2120 hc        1 MOL      0.121357
      7 N1          5.7900   -1.9630    3.2060 n         1 MOL     -0.397806
      8 C3          7.1420   -1.6110    2.8220 c3        1 MOL      0.248207
      9 C4          7.2990   -1.6490    1.2860 c         1 MOL      0.670443
     10 O2          7.2840   -2.7000    0.6560 o         1 MOL     -0.555457
     11 C5          8.2110   -2.5000    3.4740 c3        1 MOL     -0.406014
     12 C6          8.0010   -4.0260    3.1930 c         1 MOL      0.690633
     13 O3          6.9370   -4.6180    3.4340 o         1 MOL     -0.695611
     14 O4          8.9090   -4.7160    2.6330 o         1 MOL     -0.695611
     15 H4          5.7010   -2.9300    3.4830 hn        1 MOL      0.234686
     16 H5          7.3920   -0.6130    3.1800 h1        1 MOL     -0.020446
     17 H6          8.2250   -2.3060    4.5520 hc        1 MOL      0.063052
     18 H7          9.1570   -2.2060    3.0150 hc        1 MOL      0.063052
     19 N2          7.4570   -0.5210    0.6780 n         1 MOL     -0.636174
     20 C7          7.3180   -0.2870   -0.7820 c3        1 MOL      0.350571
     21 C8          5.8700   -0.0060   -1.1040 c         1 MOL      0.541459
     22 O5          5.0720    0.5800   -0.3780 o         1 MOL     -0.516430
     23 C9          8.2470    0.8550   -1.2610 c3        1 MOL     -0.321629
     24 H8          7.4580    0.2520    1.3380 hn        1 MOL      0.294427
     25 H9          7.8010   -1.1090   -1.3080 h1        1 MOL      0.040840
     26 H10         8.2130    0.9650   -2.3380 hc        1 MOL      0.081980
     27 H11         7.9750    1.7280   -0.6490 hc        1 MOL      0.081980
     28 H12         9.2730    0.7100   -0.9340 hc        1 MOL      0.081980
     29 N3          5.5180   -0.3100   -2.3730 n         1 MOL     -0.766100
     30 C10         4.2380   -0.0700   -3.0510 c3        1 MOL      0.328445
     31 C11         4.2920    1.1270   -4.0650 c         1 MOL      0.439941
     32 O6          3.3540    1.3100   -4.8650 o         1 MOL     -0.531924
     33 C12         3.7400   -1.3460   -3.7530 c3        1 MOL     -0.467318
     34 C13         3.6250   -2.5270   -2.8640 c         1 MOL      0.978228
     35 O7          4.6130   -3.3270   -2.7500 o         1 MOL     -0.794822
     36 O8          2.5900   -2.7280   -2.2180 o         1 MOL     -0.794822
     37 H13         6.1560   -0.8620   -2.9250 hn        1 MOL      0.329741
     38 H14         3.4880    0.2020   -2.3100 h1        1 MOL      0.059240
     39 H15         4.3820   -1.6340   -4.5810 hc        1 MOL      0.097958
     40 H16         2.7610   -1.0950   -4.1610 hc        1 MOL      0.097958
     41 N4          5.3330    1.9360   -3.9330 n         1 MOL     -0.170628
     42 C14         5.5840    3.0820   -4.7950 c3        1 MOL     -0.299974
     43 C15         4.5690    4.1770   -4.4880 c         1 MOL      0.704522
     44 O9          4.4250    5.1040   -5.2770 o         1 MOL     -0.590508
     45 H17         6.0460    1.7180   -3.2550 hn        1 MOL      0.229634
     46 H18         5.4310    2.8090   -5.8420 h1        1 MOL      0.132712
     47 H19         6.5380    3.5980   -4.6930 h1        1 MOL      0.132712
     48 N5          3.7410    4.0660   -3.4140 n         1 MOL     -0.619869
     49 C16         2.6780    4.9720   -3.1050 c3        1 MOL      0.332626
     50 C17         2.5030    5.2710   -1.6530 c         1 MOL      0.419085
     51 O10         3.0080    4.5770   -0.7920 o         1 MOL     -0.446146
     52 C18         1.3770    4.3730   -3.7100 c3        1 MOL     -0.255052
     53 C19         0.8960    3.1760   -2.8760 c         1 MOL      0.656776
     54 N6          1.1680    1.9620   -3.2510 n         1 MOL     -0.777793
     55 O11         0.1990    3.3420   -1.9250 o         1 MOL     -0.499773
     56 H20         3.8700    3.2120   -2.8940 hn        1 MOL      0.246927
     57 H21         2.9030    5.9500   -3.5260 h1        1 MOL      0.015086
     58 H22         1.5550    4.0830   -4.7430 hc        1 MOL      0.061920
     59 H23         0.5940    5.1360   -3.6530 hc        1 MOL      0.061920
     60 H24         1.7970    1.8230   -4.0320 hn        1 MOL      0.365104
     61 H25         0.8790    1.2180   -2.6300 hn        1 MOL      0.365104
     62 N7          1.6740    6.2870   -1.2630 n         1 MOL     -0.461845
     63 C20         1.3080    6.6810    0.1340 c3        1 MOL     -0.118879
     64 C21        -0.1250    6.3770    0.4670 c         1 MOL      0.764640
     65 O12        -0.9650    6.0340   -0.3600 o         1 MOL     -0.527750
     66 H26         1.1450    6.8060   -1.9480 hn        1 MOL      0.279712
     67 H27         1.4120    7.7710    0.2300 h1        1 MOL      0.092651
     68 H28         1.9190    6.1870    0.8900 h1        1 MOL      0.092651
     69 N8         -0.5140    6.5150    1.7670 n         1 MOL     -0.632766
     70 C22        -1.9600    6.7190    2.1020 c3        1 MOL     -0.316574
     71 C23        -2.7430    5.5120    2.5420 c         1 MOL      0.749147
     72 O13        -3.9310    5.5670    2.3770 o         1 MOL     -0.600072
     73 C24        -2.1360    7.8760    3.1160 c3        1 MOL      0.474059
     74 C25        -1.5070    7.6440    4.4990 c3        1 MOL     -0.512945
     75 O14        -1.5840    9.0870    2.5360 oh        1 MOL     -0.627341
     76 H29         0.1540    6.7030    2.4990 hn        1 MOL      0.296820
     77 H30        -2.4700    7.0000    1.1800 h1        1 MOL      0.168057
     78 H31        -3.1890    8.0720    3.2780 h1        1 MOL      0.038549
     79 H32        -0.6320    8.9470    2.5130 ho        1 MOL      0.374451
     80 H33        -1.4130    8.6110    5.0010 hc        1 MOL      0.125959
     81 H34        -2.1380    6.9500    5.0490 hc        1 MOL      0.125959
     82 H35        -0.4610    7.3400    4.4240 hc        1 MOL      0.125959
     83 N9         -2.1000    4.4930    3.1060 n         1 MOL     -0.333472
     84 C26        -2.7270    3.1610    3.3750 c3        1 MOL     -0.101595
     85 C27        -2.1470    2.1690    2.3380 c         1 MOL      0.591976
     86 O15        -0.9940    2.4160    1.8470 o         1 MOL     -0.512582
     87 C28        -2.5490    2.7490    4.8690 c3        1 MOL      0.069982
     88 C29        -3.0980    3.8460    5.8020 c3        1 MOL     -0.065063
     89 C30        -3.2280    1.3790    5.1350 c3        1 MOL     -0.230499
     90 C31        -4.5760    4.1440    5.7290 c3        1 MOL     -0.056723
     91 H36        -1.1270    4.5030    3.3600 hn        1 MOL      0.253771
     92 H37        -3.7990    3.2880    3.2590 h1        1 MOL      0.105416
     93 H38        -1.4850    2.6590    5.1010 hc        1 MOL      0.042494
     94 H39        -2.6020    4.8130    5.7630 hc        1 MOL      0.018467
     95 H40        -2.9950    3.4920    6.8350 hc        1 MOL      0.018467
     96 H41        -3.3180    1.2050    6.2120 hc        1 MOL      0.064925
     97 H42        -4.1970    1.2650    4.6520 hc        1 MOL      0.064925
     98 H43        -2.5220    0.6780    4.6980 hc        1 MOL      0.064925
     99 H44        -4.8880    4.5820    6.6770 hc        1 MOL      0.013879
    100 H45        -4.7630    4.7010    4.8150 hc        1 MOL      0.013879
    101 H46        -5.2330    3.2820    5.5930 hc        1 MOL      0.013879
    102 N10        -2.7810    1.0580    1.8860 n         1 MOL     -0.630349
    103 C32        -2.0730    0.0560    1.1170 c3        1 MOL      0.422304
    104 C33        -3.0690   -0.4900    0.0810 c         1 MOL      0.492312
    105 O16        -3.1170   -1.7000   -0.1920 o         1 MOL     -0.448880
    106 C34        -1.5400   -1.1420    2.0080 c3        1 MOL     -0.373569
    107 C35        -0.4700   -1.9100    1.2500 c         1 MOL      0.839748
    108 O17         0.0060   -2.8920    1.7920 o         1 MOL     -0.755235
    109 O18         0.1720   -1.4000    0.3410 o         1 MOL     -0.755235
    110 H47        -3.6380    0.8430    2.3680 hn        1 MOL      0.294983
    111 H48        -1.3110    0.4840    0.4550 h1        1 MOL      0.022039
    112 H49        -2.3320   -1.8620    2.2390 hc        1 MOL      0.085375
    113 H50        -1.0920   -0.8110    2.9400 hc        1 MOL      0.085375
    114 N11        -3.9580    0.4000   -0.4920 n         1 MOL     -0.565785
    115 C36        -4.9940   -0.0410   -1.4470 c3        1 MOL      0.289259
    116 C37        -5.8240   -1.2470   -1.0250 c         1 MOL      0.281635
    117 O19        -6.3680   -1.2710    0.0700 o         1 MOL     -0.526842
    118 C38        -5.8940    1.2100   -1.6270 c3        1 MOL     -0.149858
    119 C39        -6.8450    1.0780   -2.7900 ca        1 MOL      0.096016
    120 C40        -6.3940    1.1340   -4.1200 ca        1 MOL     -0.203750
    121 C41        -8.1150    0.6390   -2.5550 ca        1 MOL     -0.203750
    122 C42        -7.3280    0.8770   -5.1600 ca        1 MOL     -0.052167
    123 C43        -8.9950    0.2260   -3.5310 ca        1 MOL     -0.052167
    124 C44        -8.6830    0.4870   -4.8320 ca        1 MOL     -0.186501
    125 H51        -4.0070    1.3500   -0.1740 hn        1 MOL      0.278467
    126 H52        -4.5080   -0.2080   -2.4100 h1        1 MOL      0.008235
    127 H53        -5.3030    2.0890   -1.8930 hc        1 MOL      0.071515
    128 H54        -6.3920    1.4750   -0.6910 hc        1 MOL      0.071515
    129 H55        -5.3570    1.3250   -4.3440 ha        1 MOL      0.132479
    130 H56        -8.4670    0.4390   -1.5560 ha        1 MOL      0.132479
    131 H57        -7.0440    0.9530   -6.2020 ha        1 MOL      0.094236
    132 H58        -9.9830   -0.1230   -3.2640 ha        1 MOL      0.094236
    133 H59        -9.3450    0.0840   -5.5810 ha        1 MOL      0.110728
    134 N12        -5.7970   -2.3200   -1.8600 n         1 MOL      0.062947
    135 C45        -6.6540   -3.4740   -1.5730 c3        1 MOL     -0.023922
    136 C46        -6.2220   -4.5220   -0.5260 c         1 MOL      0.560477
    137 O20        -6.9260   -5.5290   -0.2780 o         1 MOL     -0.582402
    138 C47        -7.1280   -3.9780   -2.8810 c3        1 MOL     -0.003656
    139 C48        -5.9690   -3.7290   -3.8420 c3        1 MOL      0.023959
    140 C49        -5.2500   -2.4840   -3.2030 c3        1 MOL     -0.150677
    141 H60        -7.5560   -3.2100   -1.0180 h1        1 MOL      0.059331
    142 H61        -7.3740   -5.0310   -2.8400 hc        1 MOL      0.005649
    143 H62        -7.9890   -3.3270   -2.9930 hc        1 MOL      0.005649
    144 H63        -5.2220   -4.5240   -3.9310 hc        1 MOL      0.009351
    145 H64        -6.4570   -3.5850   -4.8010 hc        1 MOL      0.009351
    146 H65        -4.2410   -2.8680   -3.0670 h1        1 MOL      0.079899
    147 H66        -5.2010   -1.6330   -3.8780 h1        1 MOL      0.079899
    148 N13        -5.0910   -4.3570    0.0980 n         1 MOL     -0.404849
    149 C50        -4.4140   -5.2530    1.0380 c3        1 MOL      0.106598
    150 C51        -4.7360   -5.0230    2.5080 c         1 MOL      0.476165
    151 O21        -5.2560   -5.8830    3.2130 o         1 MOL     -0.546330
    152 C52        -2.8860   -5.2020    0.8820 c3        1 MOL      0.229354
    153 C53        -2.3380   -5.4080   -0.5360 c3        1 MOL     -0.489085
    154 C54        -0.8720   -4.9970   -0.6760 c         1 MOL      0.906218
    155 O22        -0.5930   -4.0600   -1.4400 o         1 MOL     -0.811033
    156 O23         0.0620   -5.5590   -0.0540 o         1 MOL     -0.811033
    157 H67        -4.5400   -3.6410   -0.3340 hn        1 MOL      0.164243
    158 H68        -4.7280   -6.2890    0.8810 h1        1 MOL      0.038949
    159 H69        -2.5310   -5.9400    1.5930 hc        1 MOL     -0.050889
    160 H70        -2.6090   -4.1910    1.2010 hc        1 MOL     -0.050889
    161 H71        -2.8950   -4.8680   -1.3000 hc        1 MOL      0.113804
    162 H72        -2.5030   -6.4610   -0.7490 hc        1 MOL      0.113804
    163 N14        -4.5080   -3.7930    2.9910 n         1 MOL     -0.240335
    164 C55        -4.8650   -3.3780    4.3970 c3        1 MOL     -0.345842
    165 H73        -4.1540   -3.8190    5.0960 h1        1 MOL      0.131247
    166 H74        -4.8250   -2.2920    4.4760 h1        1 MOL      0.131247
    167 H75        -5.8700   -3.7230    4.6340 h1        1 MOL      0.131247
    168 H76        -4.0720   -3.0650    2.4570 hn        1 MOL      0.244709
    169 Ca1         1.7670   -3.5990   -0.0230 Ca        1 MOL      1.761768
    170 O24         2.7810   -4.9790    1.9850 oh        1 MOL     -0.829172
    171 H77         2.4070   -5.5160    2.6740 ho        1 MOL      0.406846
    172 H78         3.3380   -5.5780    1.4890 ho        1 MOL      0.406846
    173 O25         2.8660   -0.9130    0.5270 oh        1 MOL     -0.829172
    174 H79         3.5780   -0.2840    0.4000 ho        1 MOL      0.406846
    175 H80         2.0650   -0.4010    0.3840 ho        1 MOL      0.406846
    176 O26         4.5480   -3.4160    0.0590 oh        1 MOL     -0.829172
    177 O27         3.0770   -5.7040   -1.1130 oh        1 MOL     -0.829172
    178 H81         5.4270   -3.1460    0.3190 ho        1 MOL      0.406846
    179 H82         3.9560   -5.9480   -0.8350 ho        1 MOL      0.406846
    180 H83         4.5720   -3.4230   -0.8990 ho        1 MOL      0.406846
    181 H84         2.9960   -6.0490   -1.9940 ho        1 MOL      0.406846
@<TRIPOS>BOND
     1    1    2 1   
     2    1    4 1   
     3    1    5 1   
     4    1    6 1   
     5    2    3 2   
     6    2    7 1   
     7    7    8 1   
     8    7   15 1   
     9    8    9 1   
    10    8   11 1   
    11    8   16 1   
    12    9   10 2   
    13    9   19 1   
    14   11   12 1   
    15   11   17 1   
    16   11   18 1   
    17   12   13 1   
    18   12   14 1   
    19   19   20 1   
    20   19   24 1   
    21   20   21 1   
    22   20   23 1   
    23   20   25 1   
    24   21   22 2   
    25   21   29 1   
    26   23   26 1   
    27   23   27 1   
    28   23   28 1   
    29   29   30 1   
    30   29   37 1   
    31   30   31 1   
    32   30   33 1   
    33   30   38 1   
    34   31   32 2   
    35   31   41 1   
    36   33   34 1   
    37   33   39 1   
    38   33   40 1   
    39   34   35 1   
    40   34   36 1   
    41   41   42 1   
    42   41   45 1   
    43   42   43 1   
    44   42   46 1   
    45   42   47 1   
    46   43   44 2   
    47   43   48 1   
    48   48   49 1   
    49   48   56 1   
    50   49   50 1   
    51   49   52 1   
    52   49   57 1   
    53   50   51 2   
    54   50   62 1   
    55   52   53 1   
    56   52   58 1   
    57   52   59 1   
    58   53   54 1   
    59   53   55 2   
    60   54   60 1   
    61   54   61 1   
    62   62   63 1   
    63   62   66 1   
    64   63   64 1   
    65   63   67 1   
    66   63   68 1   
    67   64   65 2   
    68   64   69 1   
    69   69   70 1   
    70   69   76 1   
    71   70   71 1   
    72   70   73 1   
    73   70   77 1   
    74   71   72 2   
    75   71   83 1   
    76   73   74 1   
    77   73   75 1   
    78   73   78 1   
    79   74   80 1   
    80   74   81 1   
    81   74   82 1   
    82   75   79 1   
    83   83   84 1   
    84   83   91 1   
    85   84   85 1   
    86   84   87 1   
    87   84   92 1   
    88   85   86 2   
    89   85  102 1   
    90   87   88 1   
    91   87   89 1   
    92   87   93 1   
    93   88   90 1   
    94   88   94 1   
    95   88   95 1   
    96   89   96 1   
    97   89   97 1   
    98   89   98 1   
    99   90   99 1   
   100   90  100 1   
   101   90  101 1   
   102  102  103 1   
   103  102  110 1   
   104  103  104 1   
   105  103  106 1   
   106  103  111 1   
   107  104  105 2   
   108  104  114 1   
   109  106  107 1   
   110  106  112 1   
   111  106  113 1   
   112  107  108 1   
   113  107  109 1   
   114  114  115 1   
   115  114  125 1   
   116  115  116 1   
   117  115  118 1   
   118  115  126 1   
   119  116  117 2   
   120  116  134 1   
   121  118  119 1   
   122  118  127 1   
   123  118  128 1   
   124  119  120 ar  
   125  119  121 ar  
   126  120  122 ar  
   127  120  129 1   
   128  121  123 ar  
   129  121  130 1   
   130  122  124 ar  
   131  122  131 1   
   132  123  124 ar  
   133  123  132 1   
   134  124  133 1   
   135  134  135 1   
   136  134  140 1   
   137  135  136 1   
   138  135  138 1   
   139  135  141 1   
   140  136  137 2   
   141  136  148 1   
   142  138  139 1   
   143  138  142 1   
   144  138  143 1   
   145  139  140 1   
   146  139  144 1   
   147  139  145 1   
   148  140  146 1   
   149  140  147 1   
   150  148  149 1   
   151  148  157 1   
   152  149  150 1   
   153  149  152 1   
   154  149  158 1   
   155  150  151 2   
   156  150  163 1   
   157  152  153 1   
   158  152  159 1   
   159  152  160 1   
   160  153  154 1   
   161  153  161 1   
   162  153  162 1   
   163  154  155 1   
   164  154  156 1   
   165  163  164 1   
   166  163  168 1   
   167  164  165 1   
   168  164  166 1   
   169  164  167 1   
   170  170  171 1   
   171  170  172 1   
   172  173  174 1   
   173  173  175 1   
   174  176  178 1   
   175  176  180 1   
   176  177  179 1   
   177  177  181 1   
@<TRIPOS>SUBSTRUCTURE
     1 MOL         1 TEMP              0 ****  ****    0 ROOT
