@<TRIPOS>MOLECULE
MOL
  188   182     1     0     0
SMALL
resp


@<TRIPOS>ATOM
      1 C1          1.3890    1.1020    1.9780 c3        1 MOL     -0.305362
      2 C2          2.7180    1.1320    1.2860 c         1 MOL      0.674325
      3 O1          2.8970    1.7400    0.1820 o         1 MOL     -0.579470
      4 H1          0.6120    1.4240    1.2860 hc        1 MOL      0.075506
      5 H2          1.1770    0.0880    2.3150 hc        1 MOL      0.075506
      6 H3          1.4110    1.7730    2.8370 hc        1 MOL      0.075506
      7 N1          3.6540    0.3120    1.8000 n         1 MOL     -0.383830
      8 C3          4.9560    0.1000    1.2140 c3        1 MOL     -0.486590
      9 C4          5.3290   -1.4080    1.1990 c         1 MOL      0.709779
     10 O2          6.2630   -1.7180    0.4460 o         1 MOL     -0.482891
     11 C5          5.9520    1.0290    1.9070 c3        1 MOL      0.163533
     12 C6          6.0450    0.8850    3.4590 c         1 MOL      0.568916
     13 O3          6.9970    1.5120    3.9970 o         1 MOL     -0.678900
     14 O4          5.3510   -0.0110    3.9880 o         1 MOL     -0.678900
     15 H4          3.5250   -0.2820    2.6020 hn        1 MOL      0.234779
     16 H5          4.9310    0.3980    0.1620 h1        1 MOL      0.200502
     17 H6          5.8030    2.0780    1.6360 hc        1 MOL      0.022800
     18 H7          6.9280    0.8720    1.4470 hc        1 MOL      0.022800
     19 N2          4.6170   -2.3870    1.7950 n         1 MOL     -0.526563
     20 C7          4.8660   -3.8520    1.6710 c3        1 MOL      0.185088
     21 C8          4.9990   -4.3930    0.2800 c         1 MOL      0.351123
     22 O5          5.5800   -5.4370    0.0390 o         1 MOL     -0.466117
     23 C9          6.0010   -4.3700    2.5400 c3        1 MOL     -0.166217
     24 C10         5.6750   -3.9240    4.0200 c3        1 MOL      0.182754
     25 C11         6.5670   -4.4220    5.1540 c3        1 MOL     -0.041241
     26 C12         6.4020   -3.7530    6.5370 c3        1 MOL     -0.042291
     27 N3          6.6900   -2.2910    6.5830 n4        1 MOL     -0.112018
     28 H8          3.9260   -2.0380    2.4380 hn        1 MOL      0.263991
     29 H9          4.0010   -4.3360    2.1250 h1        1 MOL      0.023148
     30 H10         6.9740   -3.9710    2.2620 hc        1 MOL      0.065458
     31 H11         6.0910   -5.4540    2.4980 hc        1 MOL      0.065458
     32 H12         4.6420   -4.1640    4.2650 hc        1 MOL     -0.036147
     33 H13         5.7790   -2.8420    4.0570 hc        1 MOL     -0.036147
     34 H14         7.6000   -4.2780    4.8340 hc        1 MOL      0.038406
     35 H15         6.3490   -5.4740    5.3210 hc        1 MOL      0.038406
     36 H16         7.1760   -4.2060    7.1720 hx        1 MOL      0.072562
     37 H17         5.4220   -4.0460    6.8970 hx        1 MOL      0.072562
     38 H18         7.5850   -2.0000    6.2290 hn        1 MOL      0.264556
     39 H19         5.9730   -1.8210    6.0490 hn        1 MOL      0.264556
     40 H20         6.5500   -1.9470    7.5140 hn        1 MOL      0.264556
     41 N4          4.4520   -3.7180   -0.7370 n         1 MOL     -0.335585
     42 C13         4.6630   -3.9790   -2.1800 c3        1 MOL      0.152601
     43 C14         4.9940   -2.6550   -3.0420 c         1 MOL      0.417005
     44 O6          4.6150   -2.5430   -4.2440 o         1 MOL     -0.508422
     45 C15         3.4700   -4.7560   -2.8250 c3        1 MOL     -0.143331
     46 C16         2.2210   -4.6400   -2.1370 c         1 MOL      0.637186
     47 O7          1.8050   -5.6850   -1.5330 o         1 MOL     -0.697044
     48 O8          1.5650   -3.6300   -2.1290 o         1 MOL     -0.697044
     49 H21         3.7920   -2.9850   -0.4960 hn        1 MOL      0.193983
     50 H22         5.5830   -4.5490   -2.3120 h1        1 MOL      0.075730
     51 H23         3.8160   -5.7850   -2.7290 hc        1 MOL      0.037202
     52 H24         3.3580   -4.5570   -3.8950 hc        1 MOL      0.037202
     53 N5          5.7350   -1.7440   -2.3430 n         1 MOL     -0.344098
     54 C17         6.4090   -0.5300   -2.9170 c3        1 MOL     -0.006576
     55 C18         7.3660    0.1080   -1.9270 c         1 MOL      0.382625
     56 O9          8.2250   -0.6340   -1.4300 o         1 MOL     -0.492594
     57 H25         6.0330   -1.9150   -1.3920 hn        1 MOL      0.250785
     58 H26         5.7220    0.1980   -3.3580 h1        1 MOL      0.088636
     59 H27         7.0400   -0.8300   -3.7460 h1        1 MOL      0.088636
     60 N6          7.4330    1.4300   -1.6160 n         1 MOL     -0.397685
     61 C19         6.4990    2.5970   -1.9740 c3        1 MOL      0.130961
     62 C20         6.2710    3.5770   -0.8060 c         1 MOL      0.359110
     63 O10         7.1580    3.7100    0.0700 o         1 MOL     -0.498488
     64 C21         7.0240    3.3200   -3.1950 c3        1 MOL     -0.164269
     65 C22         7.0960    2.4010   -4.4080 c         1 MOL      0.519067
     66 N7          8.2090    1.6890   -4.5250 n         1 MOL     -0.652369
     67 O11         6.2020    2.3310   -5.2660 o         1 MOL     -0.530849
     68 H28         8.1110    1.6770   -0.9000 hn        1 MOL      0.292590
     69 H29         5.5320    2.1400   -2.1900 h1        1 MOL      0.073162
     70 H30         8.0200    3.7500   -3.0980 hc        1 MOL      0.062930
     71 H31         6.3090    4.1250   -3.3600 hc        1 MOL      0.062930
     72 H32         9.0320    1.8670   -3.9710 hn        1 MOL      0.336212
     73 H33         8.2720    1.1700   -5.3960 hn        1 MOL      0.336212
     74 N8          5.0110    4.1250   -0.5030 n         1 MOL     -0.158778
     75 C23         3.8190    4.3640   -1.3290 c3        1 MOL     -0.411104
     76 C24         2.6570    5.0280   -0.6450 c         1 MOL      0.775859
     77 O12         2.7740    5.7330    0.3590 o         1 MOL     -0.548255
     78 H34         5.0260    4.6820    0.3410 hn        1 MOL      0.240714
     79 H35         3.5710    3.4300   -1.8400 h1        1 MOL      0.147844
     80 H36         4.2060    5.0350   -2.0980 h1        1 MOL      0.147844
     81 N9          1.4730    4.7090   -1.2120 n         1 MOL     -0.724567
     82 C25         0.1440    5.3170   -0.8010 c3        1 MOL      0.361078
     83 C26        -0.8980    4.3220   -0.4610 c         1 MOL      0.574886
     84 O13        -1.0620    3.2780   -1.0790 o         1 MOL     -0.539769
     85 C27        -0.2280    6.5150   -1.6930 c3        1 MOL     -0.147247
     86 C28        -1.0510    7.5290   -1.0110 ca        1 MOL      0.027307
     87 C29        -2.3770    7.7870   -1.3990 ca        1 MOL     -0.129871
     88 C30        -0.4860    8.1060    0.1460 ca        1 MOL     -0.129871
     89 C31        -3.1890    8.5630   -0.5640 ca        1 MOL     -0.266475
     90 C32        -1.2740    8.9630    0.8920 ca        1 MOL     -0.266475
     91 C33        -2.6670    9.1820    0.5810 ca        1 MOL      0.320418
     92 O14        -3.4840    9.8680    1.3760 oh        1 MOL     -0.458449
     93 H37         1.4490    4.0250   -1.9520 hn        1 MOL      0.341201
     94 H38         0.3300    5.7230    0.1980 h1        1 MOL     -0.029566
     95 H39        -0.7670    5.9980   -2.4890 hc        1 MOL      0.053726
     96 H40         0.6740    6.9850   -2.0890 hc        1 MOL      0.053726
     97 H41        -2.8340    7.4270   -2.3030 ha        1 MOL      0.147987
     98 H42         0.5210    7.9590    0.5050 ha        1 MOL      0.147987
     99 H43        -4.2390    8.6470   -0.7850 ha        1 MOL      0.145620
    100 H44        -0.7500    9.4490    1.7020 ha        1 MOL      0.145620
    101 H45        -3.0140   10.0700    2.1930 ho        1 MOL      0.356686
    102 N10        -1.8020    4.6520    0.4880 n         1 MOL     -0.390191
    103 C34        -2.8600    3.7300    1.0740 c3        1 MOL     -0.265153
    104 C35        -4.0980    3.5510    0.1370 c         1 MOL      0.660169
    105 O15        -4.2840    4.3330   -0.7740 o         1 MOL     -0.508636
    106 C36        -3.4010    4.3890    2.3320 c3        1 MOL      0.270784
    107 C37        -2.3420    4.2240    3.4490 c3        1 MOL     -0.055765
    108 C38        -3.8280    5.8800    2.1310 c3        1 MOL     -0.306128
    109 C39        -3.0840    4.3380    4.8250 c3        1 MOL     -0.226077
    110 H46        -1.9740    5.5890    0.8090 hn        1 MOL      0.200317
    111 H47        -2.5020    2.7170    1.2460 h1        1 MOL      0.120792
    112 H48        -4.2820    3.8580    2.7100 hc        1 MOL      0.004313
    113 H49        -1.6110    5.0270    3.3400 hc        1 MOL      0.038328
    114 H50        -1.9050    3.2450    3.2910 hc        1 MOL      0.038328
    115 H51        -4.4280    6.0900    3.0040 hc        1 MOL      0.085715
    116 H52        -2.9140    6.4650    2.1890 hc        1 MOL      0.085715
    117 H53        -4.2440    6.0980    1.1420 hc        1 MOL      0.085715
    118 H54        -3.6410    3.4550    5.1410 hc        1 MOL      0.057840
    119 H55        -2.3470    4.4630    5.6110 hc        1 MOL      0.057840
    120 H56        -3.7430    5.2040    4.8900 hc        1 MOL      0.057840
    121 N11        -4.8280    2.5000    0.3520 n         1 MOL     -0.430071
    122 C40        -6.0810    2.2410   -0.3310 c3        1 MOL     -0.011527
    123 C41        -6.2320    0.8190   -0.8410 c         1 MOL      0.654554
    124 O16        -6.2960   -0.1080   -0.0590 o         1 MOL     -0.531491
    125 C42        -7.2450    2.6640    0.6680 c3        1 MOL      0.119971
    126 O17        -7.2650    4.0780    0.7140 oh        1 MOL     -0.599265
    127 H57        -4.8500    2.0890    1.2770 hn        1 MOL      0.259826
    128 H58        -6.2160    2.8960   -1.1920 h1        1 MOL      0.088130
    129 H59        -7.1060    2.1490    1.6160 h1        1 MOL      0.033218
    130 H60        -8.2690    2.3990    0.4330 h1        1 MOL      0.033218
    131 H61        -8.1720    4.3660    0.8700 ho        1 MOL      0.420023
    132 N12        -6.2250    0.6340   -2.1980 n         1 MOL     -0.765518
    133 C43        -6.0910   -0.6230   -2.9460 c3        1 MOL      0.533708
    134 C44        -7.0290   -1.7560   -2.5500 c         1 MOL      0.173905
    135 O18        -6.7740   -2.9600   -2.6020 o         1 MOL     -0.386763
    136 C45        -4.6100   -1.0810   -2.8910 c3        1 MOL     -0.247426
    137 H62        -6.1210    1.4190   -2.8330 hn        1 MOL      0.359934
    138 H63        -6.3520   -0.2920   -3.9530 h1        1 MOL      0.004706
    139 H64        -3.9520   -0.3130   -3.2990 hc        1 MOL      0.056099
    140 H65        -4.4020   -1.4420   -1.8900 hc        1 MOL      0.056099
    141 H66        -4.5260   -1.9330   -3.5690 hc        1 MOL      0.056099
    142 N13        -8.3090   -1.4370   -2.1880 n         1 MOL     -0.380945
    143 C46        -9.3230   -2.4330   -1.7050 c3        1 MOL      0.285137
    144 C47        -8.8230   -3.3890   -0.6090 c         1 MOL      0.247654
    145 O19        -9.2260   -4.5630   -0.6090 o         1 MOL     -0.451829
    146 C48        -9.8710   -3.1720   -2.9200 c3        1 MOL     -0.486412
    147 H67        -8.4820   -0.4710   -1.9880 hn        1 MOL      0.226349
    148 H68       -10.0000   -1.7550   -1.1850 h1        1 MOL      0.021497
    149 H69       -10.6190   -3.9390   -2.7080 hc        1 MOL      0.143720
    150 H70       -10.3230   -2.4270   -3.5820 hc        1 MOL      0.143720
    151 H71        -9.1080   -3.8030   -3.3680 hc        1 MOL      0.143720
    152 N14        -7.9280   -2.8680    0.2420 n         1 MOL     -0.082607
    153 C49        -7.1210   -3.5970    1.1950 c3        1 MOL     -0.205649
    154 C50        -7.4810   -3.3200    2.6810 c         1 MOL      0.455369
    155 O20        -7.2900   -4.1460    3.5710 o         1 MOL     -0.508456
    156 C51        -5.6020   -3.3860    0.8810 c3        1 MOL      0.510301
    157 C52        -4.7630   -4.6380    1.2540 c3        1 MOL     -0.401413
    158 C53        -3.3870   -4.7060    0.6060 c         1 MOL      0.840184
    159 O21        -2.3210   -4.7420    1.3000 o         1 MOL     -0.795145
    160 O22        -3.2650   -4.7590   -0.6330 o         1 MOL     -0.795145
    161 H72        -7.8260   -1.8680    0.2810 hn        1 MOL      0.145097
    162 H73        -7.2860   -4.6560    0.9990 h1        1 MOL      0.137746
    163 H74        -5.2050   -2.4340    1.2550 hc        1 MOL     -0.105531
    164 H75        -5.5470   -3.2660   -0.2000 hc        1 MOL     -0.105531
    165 H76        -5.3060   -5.5280    0.9490 hc        1 MOL      0.078849
    166 H77        -4.7220   -4.6680    2.3470 hc        1 MOL      0.078849
    167 N15        -8.0780   -2.1910    2.9570 n         1 MOL     -0.248910
    168 C54        -8.7200   -1.9590    4.2680 c3        1 MOL     -0.316109
    169 H78        -9.2820   -1.0260    4.2370 h1        1 MOL      0.134616
    170 H79        -9.3960   -2.7830    4.4930 h1        1 MOL      0.134616
    171 H80        -7.9550   -1.8950    5.0420 h1        1 MOL      0.134616
    172 H81        -8.2630   -1.5930    2.1620 hn        1 MOL      0.199193
    173 Ca1        -0.7030   -4.6740   -0.8940 Ca        1 MOL      1.778541
    174 O23        -1.1720   -4.3750   -3.6490 oh        1 MOL     -0.853725
    175 H82        -1.4780   -3.4930   -3.8490 ho        1 MOL      0.422498
    176 H83        -1.4400   -4.9030   -4.3950 ho        1 MOL      0.422498
    177 O24        -1.4120   -6.9290   -2.1090 oh        1 MOL     -0.853725
    178 H84        -0.8740   -7.4370   -2.7030 ho        1 MOL      0.422498
    179 H85        -2.3090   -7.0730   -2.4110 ho        1 MOL      0.422498
    180 O25         0.9080   -3.2250    0.7120 oh        1 MOL     -0.853725
    181 H86         1.6290   -2.7570    0.2920 ho        1 MOL      0.422498
    182 H87         1.0500   -3.1040    1.6460 ho        1 MOL      0.422498
    183 O26         0.1680   -6.6740    0.7030 oh        1 MOL     -0.853725
    184 H88         0.3970   -6.4710    1.6160 ho        1 MOL      0.422498
    185 H89         0.4420   -7.5880    0.5870 ho        1 MOL      0.422498
    186 O27        -1.7250   -2.1060   -1.5020 oh        1 MOL     -0.853725
    187 H90        -1.5180   -1.4930   -2.2110 ho        1 MOL      0.422498
    188 H91        -2.6170   -1.8700   -1.2510 ho        1 MOL      0.422498
@<TRIPOS>BOND
     1    1    2 1   
     2    1    4 1   
     3    1    5 1   
     4    1    6 1   
     5    2    3 2   
     6    2    7 1   
     7    7    8 1   
     8    7   15 1   
     9    8    9 1   
    10    8   11 1   
    11    8   16 1   
    12    9   10 2   
    13    9   19 1   
    14   11   12 1   
    15   11   17 1   
    16   11   18 1   
    17   12   13 1   
    18   12   14 1   
    19   19   20 1   
    20   19   28 1   
    21   20   21 1   
    22   20   23 1   
    23   20   29 1   
    24   21   22 2   
    25   21   41 1   
    26   23   24 1   
    27   23   30 1   
    28   23   31 1   
    29   24   25 1   
    30   24   32 1   
    31   24   33 1   
    32   25   26 1   
    33   25   34 1   
    34   25   35 1   
    35   26   27 1   
    36   26   36 1   
    37   26   37 1   
    38   27   38 1   
    39   27   39 1   
    40   27   40 1   
    41   41   42 1   
    42   41   49 1   
    43   42   43 1   
    44   42   45 1   
    45   42   50 1   
    46   43   44 2   
    47   43   53 1   
    48   45   46 1   
    49   45   51 1   
    50   45   52 1   
    51   46   47 1   
    52   46   48 1   
    53   53   54 1   
    54   53   57 1   
    55   54   55 1   
    56   54   58 1   
    57   54   59 1   
    58   55   56 2   
    59   55   60 1   
    60   60   61 1   
    61   60   68 1   
    62   61   62 1   
    63   61   64 1   
    64   61   69 1   
    65   62   63 2   
    66   62   74 1   
    67   64   65 1   
    68   64   70 1   
    69   64   71 1   
    70   65   66 1   
    71   65   67 2   
    72   66   72 1   
    73   66   73 1   
    74   74   75 1   
    75   74   78 1   
    76   75   76 1   
    77   75   79 1   
    78   75   80 1   
    79   76   77 2   
    80   76   81 1   
    81   81   82 1   
    82   81   93 1   
    83   82   83 1   
    84   82   85 1   
    85   82   94 1   
    86   83   84 2   
    87   83  102 1   
    88   85   86 1   
    89   85   95 1   
    90   85   96 1   
    91   86   87 ar  
    92   86   88 ar  
    93   87   89 ar  
    94   87   97 1   
    95   88   90 ar  
    96   88   98 1   
    97   89   91 ar  
    98   89   99 1   
    99   90   91 ar  
   100   90  100 1   
   101   91   92 1   
   102   92  101 1   
   103  102  103 1   
   104  102  110 1   
   105  103  104 1   
   106  103  106 1   
   107  103  111 1   
   108  104  105 2   
   109  104  121 1   
   110  106  107 1   
   111  106  108 1   
   112  106  112 1   
   113  107  109 1   
   114  107  113 1   
   115  107  114 1   
   116  108  115 1   
   117  108  116 1   
   118  108  117 1   
   119  109  118 1   
   120  109  119 1   
   121  109  120 1   
   122  121  122 1   
   123  121  127 1   
   124  122  123 1   
   125  122  125 1   
   126  122  128 1   
   127  123  124 2   
   128  123  132 1   
   129  125  126 1   
   130  125  129 1   
   131  125  130 1   
   132  126  131 1   
   133  132  133 1   
   134  132  137 1   
   135  133  134 1   
   136  133  136 1   
   137  133  138 1   
   138  134  135 2   
   139  134  142 1   
   140  136  139 1   
   141  136  140 1   
   142  136  141 1   
   143  142  143 1   
   144  142  147 1   
   145  143  144 1   
   146  143  146 1   
   147  143  148 1   
   148  144  145 2   
   149  144  152 1   
   150  146  149 1   
   151  146  150 1   
   152  146  151 1   
   153  152  153 1   
   154  152  161 1   
   155  153  154 1   
   156  153  156 1   
   157  153  162 1   
   158  154  155 2   
   159  154  167 1   
   160  156  157 1   
   161  156  163 1   
   162  156  164 1   
   163  157  158 1   
   164  157  165 1   
   165  157  166 1   
   166  158  159 1   
   167  158  160 1   
   168  167  168 1   
   169  167  172 1   
   170  168  169 1   
   171  168  170 1   
   172  168  171 1   
   173  174  175 1   
   174  174  176 1   
   175  177  178 1   
   176  177  179 1   
   177  180  181 1   
   178  180  182 1   
   179  183  184 1   
   180  183  185 1   
   181  186  187 1   
   182  186  188 1   
@<TRIPOS>SUBSTRUCTURE
     1 MOL         1 TEMP              0 ****  ****    0 ROOT
