@<TRIPOS>MOLECULE
MOL
  181   177     1     0     0
SMALL
resp


@<TRIPOS>ATOM
      1 C1          9.8540    7.3190   -1.4490 c3        1 MOL     -0.303795
      2 C2          8.8800    6.4130   -0.6550 c         1 MOL      0.670680
      3 O1          8.0200    6.9310    0.0430 o         1 MOL     -0.576498
      4 H1          9.3140    8.1860   -1.8310 hc        1 MOL      0.077407
      5 H2         10.6580    7.6530   -0.7930 hc        1 MOL      0.077407
      6 H3         10.2740    6.7580   -2.2840 hc        1 MOL      0.077407
      7 N1          8.9770    5.0550   -0.6680 n         1 MOL     -0.686959
      8 C3          9.9270    4.1810   -1.3790 c3        1 MOL      0.494724
      9 C4         10.7570    3.2710   -0.5110 c         1 MOL      0.275453
     10 O2         11.5680    2.5020   -0.9820 o         1 MOL     -0.517082
     11 C5          9.0470    3.4130   -2.3930 c3        1 MOL     -0.519857
     12 C6          8.0550    2.4860   -1.8000 c         1 MOL      0.851274
     13 O3          7.3440    1.7190   -2.5270 o         1 MOL     -0.779076
     14 O4          7.7960    2.3790   -0.6020 o         1 MOL     -0.779076
     15 H4          8.3060    4.6650   -0.0280 hn        1 MOL      0.411624
     16 H5         10.5720    4.8640   -1.9370 h1        1 MOL     -0.011702
     17 H6          9.7330    2.7990   -2.9900 hc        1 MOL      0.123730
     18 H7          8.4610    4.1250   -2.9680 hc        1 MOL      0.123730
     19 N2         10.5380    3.3320    0.7920 n         1 MOL     -0.399024
     20 C7         11.3400    2.6660    1.8370 c3        1 MOL      0.419633
     21 C8         10.7190    1.3550    2.3580 c         1 MOL      0.266881
     22 O5         11.2470    0.7440    3.3120 o         1 MOL     -0.544986
     23 C9         11.7230    3.6210    2.9660 c3        1 MOL     -0.270609
     24 H8          9.8140    3.9380    1.1400 hn        1 MOL      0.216609
     25 H9         12.3090    2.3670    1.4370 h1        1 MOL      0.011096
     26 H10        10.8440    3.7740    3.5940 hc        1 MOL      0.066890
     27 H11        12.5570    3.2980    3.5840 hc        1 MOL      0.066890
     28 H12        11.9660    4.5720    2.4890 hc        1 MOL      0.066890
     29 N3          9.7240    0.7610    1.7120 n         1 MOL     -0.191273
     30 C10         9.1690   -0.5770    2.0930 c3        1 MOL      0.005713
     31 C11         8.5480   -1.3210    0.8920 c         1 MOL      0.317952
     32 O6          8.3090   -0.6690   -0.1310 o         1 MOL     -0.501910
     33 C12         8.0070   -0.4200    3.0520 c3        1 MOL     -0.062648
     34 C13         7.1180    0.7780    2.7270 c         1 MOL      0.653363
     35 O7          7.0440    1.6770    3.5230 o         1 MOL     -0.662070
     36 O8          6.4330    0.7150    1.7120 o         1 MOL     -0.662070
     37 H13         9.3270    1.2980    0.9510 hn        1 MOL      0.266728
     38 H14         9.9520   -1.1890    2.5610 h1        1 MOL      0.067238
     39 H15         8.4140   -0.3310    4.0630 hc        1 MOL      0.008549
     40 H16         7.3880   -1.3120    3.1530 hc        1 MOL      0.008549
     41 N4          8.3300   -2.6320    1.0040 n         1 MOL     -0.198504
     42 C14         8.0240   -3.5310   -0.1240 c3        1 MOL     -0.444193
     43 C15         6.6460   -3.1870   -0.7270 c         1 MOL      0.945780
     44 O9          5.9460   -2.2490   -0.3770 o         1 MOL     -0.722032
     45 H17         8.5280   -3.1050    1.8690 hn        1 MOL      0.263599
     46 H18         7.9500   -4.5280    0.2860 h1        1 MOL      0.179772
     47 H19         8.7600   -3.4840   -0.9320 h1        1 MOL      0.179772
     48 N5          6.1750   -4.0660   -1.5570 n         1 MOL     -0.649725
     49 C16         4.8850   -3.9990   -2.2980 c3        1 MOL     -0.030775
     50 C17         3.7060   -4.3380   -1.3160 c         1 MOL      0.911429
     51 O10         3.8030   -5.3340   -0.5820 o         1 MOL     -0.585989
     52 C18         4.9920   -4.9540   -3.5370 c3        1 MOL     -0.555327
     53 C19         6.0870   -4.5440   -4.3980 c         1 MOL      0.894674
     54 N6          5.9540   -3.8340   -5.5160 n         1 MOL     -0.880854
     55 O11         7.2000   -4.9850   -4.2500 o         1 MOL     -0.610007
     56 H20         6.6560   -4.9630   -1.6030 hn        1 MOL      0.323164
     57 H21         4.6460   -2.9960   -2.6520 h1        1 MOL      0.054738
     58 H22         4.0710   -4.8880   -4.1120 hc        1 MOL      0.170872
     59 H23         5.2260   -5.9230   -3.1000 hc        1 MOL      0.170872
     60 H24         5.0160   -3.5230   -5.7480 hn        1 MOL      0.387469
     61 H25         6.7880   -3.6800   -6.0580 hn        1 MOL      0.387469
     62 N7          2.5970   -3.5680   -1.3370 n         1 MOL     -0.791715
     63 C20         1.4330   -3.8000   -0.4520 c3        1 MOL      0.246319
     64 C21         1.4200   -3.1370    0.9290 c         1 MOL      0.564982
     65 O12         2.3250   -2.3780    1.2260 o         1 MOL     -0.570798
     66 H26         2.5370   -2.7820   -1.9630 hn        1 MOL      0.400870
     67 H27         1.3380   -4.8820   -0.3620 h1        1 MOL      0.026045
     68 H28         0.6080   -3.3550   -1.0110 h1        1 MOL      0.026045
     69 N8          0.4570   -3.4620    1.8040 n         1 MOL     -0.399285
     70 C22        -0.6390   -4.4450    1.6060 c3        1 MOL     -0.042346
     71 C23        -2.0890   -3.8250    1.8030 c         1 MOL      0.516506
     72 O13        -3.0620   -4.6310    1.9990 o         1 MOL     -0.558998
     73 C24        -0.4880   -5.6610    2.5950 c3        1 MOL      0.507736
     74 C25         0.5810   -6.5580    1.9800 c3        1 MOL     -0.469388
     75 O14        -0.1220   -5.2510    3.9260 oh        1 MOL     -0.664950
     76 H29         0.5350   -2.9200    2.6540 hn        1 MOL      0.304230
     77 H30        -0.5740   -4.8870    0.6150 h1        1 MOL      0.047263
     78 H31        -1.4610   -6.1320    2.7100 h1        1 MOL     -0.049204
     79 H32        -0.9170   -5.3720    4.4430 ho        1 MOL      0.409886
     80 H33         0.8680   -7.4330    2.5770 hc        1 MOL      0.119007
     81 H34         0.1390   -6.9350    1.0570 hc        1 MOL      0.119007
     82 H35         1.4540   -5.9570    1.7430 hc        1 MOL      0.119007
     83 N9         -2.2670   -2.4910    1.7840 n         1 MOL     -0.498192
     84 C26        -3.5630   -1.9070    1.7890 c3        1 MOL      0.237288
     85 C27        -3.5250   -0.7400    0.7800 c         1 MOL      0.489411
     86 O15        -2.5050   -0.0650    0.6320 o         1 MOL     -0.522639
     87 C28        -3.8260   -1.3050    3.1450 c3        1 MOL      0.022335
     88 C29        -3.8750   -2.2600    4.4150 c3        1 MOL      0.184708
     89 C30        -5.1900   -0.4500    3.2350 c3        1 MOL     -0.335450
     90 C31        -5.0910   -3.2340    4.4430 c3        1 MOL     -0.217140
     91 H36        -1.5000   -1.8560    1.6170 hn        1 MOL      0.230424
     92 H37        -4.3060   -2.7040    1.7670 h1        1 MOL      0.126550
     93 H38        -3.0130   -0.5810    3.2810 hc        1 MOL      0.004288
     94 H39        -3.8630   -1.6720    5.3310 hc        1 MOL     -0.051727
     95 H40        -2.9520   -2.8290    4.4000 hc        1 MOL     -0.051727
     96 H41        -5.3620   -0.1480    4.2610 hc        1 MOL      0.107381
     97 H42        -4.8550    0.4200    2.6670 hc        1 MOL      0.107381
     98 H43        -5.9670   -1.1240    2.8810 hc        1 MOL      0.107381
     99 H44        -5.9360   -2.7040    4.8710 hc        1 MOL      0.032036
    100 H45        -5.3320   -3.4600    3.4050 hc        1 MOL      0.032036
    101 H46        -4.7700   -4.0110    5.1400 hc        1 MOL      0.032036
    102 N10        -4.5670   -0.5200    0.0010 n         1 MOL     -0.377242
    103 C32        -5.8000   -1.2910   -0.2190 c3        1 MOL     -0.236503
    104 C33        -6.8510   -0.3290   -0.7550 c         1 MOL      0.518809
    105 O16        -6.5000    0.6570   -1.4190 o         1 MOL     -0.457252
    106 C34        -5.5570   -2.4750   -1.2130 c3        1 MOL      0.040033
    107 C35        -4.6690   -2.2450   -2.4950 c         1 MOL      0.694014
    108 O17        -3.4250   -2.5200   -2.4080 o         1 MOL     -0.723401
    109 O18        -5.2800   -2.0380   -3.5910 o         1 MOL     -0.723401
    110 H47        -4.5020    0.2920   -0.6010 hn        1 MOL      0.313161
    111 H48        -6.2170   -1.8010    0.6560 h1        1 MOL      0.092516
    112 H49        -6.5760   -2.7700   -1.4770 hc        1 MOL     -0.042348
    113 H50        -5.0320   -3.3090   -0.7350 hc        1 MOL     -0.042348
    114 N11        -8.1450   -0.6100   -0.5790 n         1 MOL     -0.390817
    115 C36        -9.2850    0.2620   -0.8880 c3        1 MOL      0.215847
    116 C37       -10.1140    0.6930    0.3620 c         1 MOL      0.270275
    117 O19       -10.1690   -0.0520    1.3270 o         1 MOL     -0.494277
    118 C38       -10.2480   -0.4890   -1.9150 c3        1 MOL     -0.250053
    119 C39       -10.9320   -1.7580   -1.4550 ca        1 MOL      0.100709
    120 C40       -10.3550   -2.9970   -1.7790 ca        1 MOL     -0.139325
    121 C41       -12.1420   -1.7790   -0.7080 ca        1 MOL     -0.139325
    122 C42       -11.0720   -4.1630   -1.5930 ca        1 MOL     -0.121981
    123 C43       -12.9000   -2.9250   -0.4650 ca        1 MOL     -0.121981
    124 C44       -12.3560   -4.1200   -0.9960 ca        1 MOL     -0.141990
    125 H51        -8.4130   -1.4230   -0.0410 hn        1 MOL      0.283759
    126 H52        -8.9120    1.1030   -1.4630 h1        1 MOL      0.067749
    127 H53        -9.6840   -0.7150   -2.8190 hc        1 MOL      0.087010
    128 H54       -10.9270    0.3090   -2.2350 hc        1 MOL      0.087010
    129 H55        -9.3730   -3.0550   -2.2320 ha        1 MOL      0.129497
    130 H56       -12.4280   -0.8430   -0.2510 ha        1 MOL      0.129497
    131 H57       -10.6150   -5.1090   -1.8410 ha        1 MOL      0.110420
    132 H58       -13.8530   -2.8920    0.0510 ha        1 MOL      0.110420
    133 H59       -12.8860   -5.0500   -0.8670 ha        1 MOL      0.095333
    134 N12       -10.8030    1.8160    0.3540 n         1 MOL     -0.082209
    135 C45       -10.8250    2.8310   -0.7070 c3        1 MOL      0.288999
    136 C46        -9.4690    3.5140   -1.0370 c         1 MOL      0.321063
    137 O20        -9.0440    3.4950   -2.1990 o         1 MOL     -0.532436
    138 C47       -11.8810    3.8420   -0.3600 c3        1 MOL     -0.286403
    139 C48       -12.8460    2.9850    0.4330 c3        1 MOL      0.080877
    140 C49       -11.9110    2.1140    1.2930 c3        1 MOL     -0.379357
    141 H60       -11.1410    2.4270   -1.6750 h1        1 MOL      0.013906
    142 H61       -11.5230    4.6790    0.2350 hc        1 MOL      0.096334
    143 H62       -12.3430    4.1430   -1.3040 hc        1 MOL      0.096334
    144 H63       -13.5400    3.5690    1.0440 hc        1 MOL      0.005531
    145 H64       -13.3660    2.3220   -0.2570 hc        1 MOL      0.005531
    146 H65       -11.5830    2.7470    2.1080 h1        1 MOL      0.170819
    147 H66       -12.4660    1.2340    1.6080 h1        1 MOL      0.170819
    148 N13        -8.7600    4.0210   -0.0190 n         1 MOL     -0.420115
    149 C50        -7.4750    4.6800   -0.3010 c3        1 MOL      0.211259
    150 C51        -7.6360    5.9950   -1.0450 c         1 MOL      0.412446
    151 O21        -8.0420    6.9590   -0.4340 o         1 MOL     -0.602854
    152 C52        -6.7680    4.8760    0.9890 c3        1 MOL      0.144947
    153 C53        -6.3600    3.5080    1.6200 c3        1 MOL     -0.158785
    154 C54        -5.2070    3.6970    2.5580 c         1 MOL      0.728670
    155 O22        -5.4060    3.8950    3.7650 o         1 MOL     -0.738811
    156 O23        -4.1040    3.6430    2.0290 o         1 MOL     -0.738811
    157 H67        -9.0820    3.9640    0.9320 hn        1 MOL      0.289547
    158 H68        -6.8520    3.9880   -0.8740 h1        1 MOL      0.062699
    159 H69        -7.2540    5.5530    1.6960 hc        1 MOL     -0.030636
    160 H70        -5.8100    5.3070    0.7300 hc        1 MOL     -0.030636
    161 H71        -6.0800    2.7810    0.8590 hc        1 MOL     -0.024695
    162 H72        -7.1980    3.0170    2.1210 hc        1 MOL     -0.024695
    163 N14        -7.2860    6.1640   -2.2770 n         1 MOL     -0.268240
    164 C55        -6.5740    5.2550   -3.1050 c3        1 MOL     -0.114548
    165 H73        -6.8570    5.4150   -4.1450 h1        1 MOL      0.069052
    166 H74        -5.5030    5.4200   -2.9900 h1        1 MOL      0.069052
    167 H75        -6.8180    4.2320   -2.8170 h1        1 MOL      0.069052
    168 H76        -7.2790    7.1270   -2.5800 hn        1 MOL      0.247989
    169 Ca1         6.0110    0.3740   -0.8030 Ca        1 MOL      1.723389
    170 O24         3.9440    0.2170   -2.4140 oh        1 MOL     -0.814288
    171 H77         4.0420    0.1780   -3.3630 ho        1 MOL      0.402709
    172 H78         3.1410   -0.2670   -2.2370 ho        1 MOL      0.402709
    173 O25         6.6940   -0.8940   -3.0550 oh        1 MOL     -0.814288
    174 H79         7.4560   -1.4530   -3.2000 ho        1 MOL      0.402709
    175 H80         6.6620   -0.3310   -3.8300 ho        1 MOL      0.402709
    176 O26         3.6950   -0.2570    0.4130 oh        1 MOL     -0.814288
    177 H81         3.7270    0.1420    1.2770 ho        1 MOL      0.402709
    178 H82         3.0840   -0.9970    0.5140 ho        1 MOL      0.402709
    179 O27         4.6060    2.5670   -0.1340 oh        1 MOL     -0.814288
    180 H83         4.4680    3.2320    0.5290 ho        1 MOL      0.402709
    181 H84         3.7240    2.3650   -0.4620 ho        1 MOL      0.402709
@<TRIPOS>BOND
     1    1    2 1   
     2    1    4 1   
     3    1    5 1   
     4    1    6 1   
     5    2    3 2   
     6    2    7 1   
     7    7    8 1   
     8    7   15 1   
     9    8    9 1   
    10    8   11 1   
    11    8   16 1   
    12    9   10 2   
    13    9   19 1   
    14   11   12 1   
    15   11   17 1   
    16   11   18 1   
    17   12   13 1   
    18   12   14 1   
    19   19   20 1   
    20   19   24 1   
    21   20   21 1   
    22   20   23 1   
    23   20   25 1   
    24   21   22 2   
    25   21   29 1   
    26   23   26 1   
    27   23   27 1   
    28   23   28 1   
    29   29   30 1   
    30   29   37 1   
    31   30   31 1   
    32   30   33 1   
    33   30   38 1   
    34   31   32 2   
    35   31   41 1   
    36   33   34 1   
    37   33   39 1   
    38   33   40 1   
    39   34   35 1   
    40   34   36 1   
    41   41   42 1   
    42   41   45 1   
    43   42   43 1   
    44   42   46 1   
    45   42   47 1   
    46   43   44 2   
    47   43   48 1   
    48   48   49 1   
    49   48   56 1   
    50   49   50 1   
    51   49   52 1   
    52   49   57 1   
    53   50   51 2   
    54   50   62 1   
    55   52   53 1   
    56   52   58 1   
    57   52   59 1   
    58   53   54 1   
    59   53   55 2   
    60   54   60 1   
    61   54   61 1   
    62   62   63 1   
    63   62   66 1   
    64   63   64 1   
    65   63   67 1   
    66   63   68 1   
    67   64   65 2   
    68   64   69 1   
    69   69   70 1   
    70   69   76 1   
    71   70   71 1   
    72   70   73 1   
    73   70   77 1   
    74   71   72 2   
    75   71   83 1   
    76   73   74 1   
    77   73   75 1   
    78   73   78 1   
    79   74   80 1   
    80   74   81 1   
    81   74   82 1   
    82   75   79 1   
    83   83   84 1   
    84   83   91 1   
    85   84   85 1   
    86   84   87 1   
    87   84   92 1   
    88   85   86 2   
    89   85  102 1   
    90   87   88 1   
    91   87   89 1   
    92   87   93 1   
    93   88   90 1   
    94   88   94 1   
    95   88   95 1   
    96   89   96 1   
    97   89   97 1   
    98   89   98 1   
    99   90   99 1   
   100   90  100 1   
   101   90  101 1   
   102  102  103 1   
   103  102  110 1   
   104  103  104 1   
   105  103  106 1   
   106  103  111 1   
   107  104  105 2   
   108  104  114 1   
   109  106  107 1   
   110  106  112 1   
   111  106  113 1   
   112  107  108 1   
   113  107  109 1   
   114  114  115 1   
   115  114  125 1   
   116  115  116 1   
   117  115  118 1   
   118  115  126 1   
   119  116  117 2   
   120  116  134 1   
   121  118  119 1   
   122  118  127 1   
   123  118  128 1   
   124  119  120 ar  
   125  119  121 ar  
   126  120  122 ar  
   127  120  129 1   
   128  121  123 ar  
   129  121  130 1   
   130  122  124 ar  
   131  122  131 1   
   132  123  124 ar  
   133  123  132 1   
   134  124  133 1   
   135  134  135 1   
   136  134  140 1   
   137  135  136 1   
   138  135  138 1   
   139  135  141 1   
   140  136  137 2   
   141  136  148 1   
   142  138  139 1   
   143  138  142 1   
   144  138  143 1   
   145  139  140 1   
   146  139  144 1   
   147  139  145 1   
   148  140  146 1   
   149  140  147 1   
   150  148  149 1   
   151  148  157 1   
   152  149  150 1   
   153  149  152 1   
   154  149  158 1   
   155  150  151 2   
   156  150  163 1   
   157  152  153 1   
   158  152  159 1   
   159  152  160 1   
   160  153  154 1   
   161  153  161 1   
   162  153  162 1   
   163  154  155 1   
   164  154  156 1   
   165  163  164 1   
   166  163  168 1   
   167  164  165 1   
   168  164  166 1   
   169  164  167 1   
   170  170  171 1   
   171  170  172 1   
   172  173  174 1   
   173  173  175 1   
   174  176  177 1   
   175  176  178 1   
   176  179  180 1   
   177  179  181 1   
@<TRIPOS>SUBSTRUCTURE
     1 MOL         1 TEMP              0 ****  ****    0 ROOT
