@<TRIPOS>MOLECULE
MOL
  192   187     1     0     0
SMALL
resp


@<TRIPOS>ATOM
      1 C1          5.3400    3.0980    5.6730 c3        1 MOL     -0.438626
      2 C2          4.8930    2.5960    4.2820 c         1 MOL      0.670816
      3 O1          4.2170    3.3300    3.5150 o         1 MOL     -0.558798
      4 H1          6.0190    3.9430    5.5520 hc        1 MOL      0.124047
      5 H2          4.4670    3.4120    6.2450 hc        1 MOL      0.124047
      6 H3          5.8520    2.2950    6.2030 hc        1 MOL      0.124047
      7 N1          5.1560    1.3270    3.9310 n         1 MOL     -0.481989
      8 C3          5.0210    0.6730    2.5600 c3        1 MOL      0.140962
      9 C4          3.5560    0.4210    2.0340 c         1 MOL      0.111058
     10 O2          3.3540   -0.2040    1.0330 o         1 MOL     -0.245063
     11 C5          6.0250   -0.5070    2.3970 c3        1 MOL     -0.039872
     12 C6          6.3930   -1.2500    3.7010 c         1 MOL      0.525855
     13 O3          7.2760   -0.8150    4.4750 o         1 MOL     -0.630637
     14 O4          5.6870   -2.2750    4.1390 o         1 MOL     -0.630637
     15 H4          5.5030    0.7420    4.6820 hn        1 MOL      0.306644
     16 H5          5.4980    1.3020    1.8140 h1        1 MOL      0.074391
     17 H6          6.8970   -0.0890    1.9000 hc        1 MOL      0.006788
     18 H7          5.5130   -1.1640    1.6960 hc        1 MOL      0.006788
     19 N2          2.5950    1.0190    2.7360 n         1 MOL     -0.273464
     20 C7          1.1540    0.8490    2.5960 c3        1 MOL      0.197297
     21 C8          0.3550    2.0840    2.2100 c         1 MOL      0.199690
     22 O5          0.7440    3.1190    2.7310 o         1 MOL     -0.431488
     23 C9          0.6560    0.2690    3.9260 c3        1 MOL     -0.157362
     24 C10         0.8900   -1.2360    4.0900 c3        1 MOL     -0.214604
     25 C11         2.1960   -1.7130    4.6190 c3        1 MOL      0.145310
     26 C12         2.2650   -3.2520    4.6360 c3        1 MOL     -0.153024
     27 N3          3.4090   -3.7340    3.8100 n4        1 MOL     -0.223445
     28 H8          2.9040    1.5290    3.5520 hn        1 MOL      0.238221
     29 H9          1.0270    0.0720    1.8450 h1        1 MOL      0.098526
     30 H10        -0.4130    0.4010    4.0400 hc        1 MOL      0.098672
     31 H11         1.1010    0.7320    4.8110 hc        1 MOL      0.098672
     32 H12         0.7040   -1.8310    3.1970 hc        1 MOL      0.074581
     33 H13         0.1890   -1.5240    4.8740 hc        1 MOL      0.074581
     34 H14         2.4570   -1.3310    5.6000 hc        1 MOL      0.001479
     35 H15         3.0230   -1.2860    4.0510 hc        1 MOL      0.001479
     36 H16         1.3250   -3.6530    4.2500 hx        1 MOL      0.116556
     37 H17         2.3210   -3.6210    5.6590 hx        1 MOL      0.116556
     38 H18         4.2440   -3.2870    4.1530 hn        1 MOL      0.241707
     39 H19         3.6610   -4.6900    4.0420 hn        1 MOL      0.241707
     40 H20         3.2390   -3.7510    2.8140 hn        1 MOL      0.241707
     41 N4         -0.6030    2.0690    1.2620 n         1 MOL     -0.041748
     42 C13        -1.1850    0.9210    0.4970 c3        1 MOL     -0.562657
     43 C14        -1.6600   -0.2940    1.2920 c         1 MOL      0.277459
     44 O6         -1.2060   -1.4540    1.1720 o         1 MOL     -0.496386
     45 C15        -0.2830    0.4910   -0.6630 c3        1 MOL     -0.252475
     46 C16        -0.1180    1.5220   -1.7830 c         1 MOL      0.575877
     47 O7         -1.0590    2.4100   -1.8220 o         1 MOL     -0.747719
     48 O8          0.8170    1.6150   -2.5310 o         1 MOL     -0.747719
     49 H21        -0.9160    2.9610    0.9120 hn        1 MOL      0.167586
     50 H22        -2.1510    1.2440    0.1140 h1        1 MOL      0.217794
     51 H23        -0.6620   -0.3950   -1.1570 hc        1 MOL      0.275384
     52 H24         0.7350    0.2420   -0.3550 hc        1 MOL      0.275384
     53 N5         -2.6800   -0.1240    2.1570 n         1 MOL     -0.142956
     54 C17        -3.5960    1.0150    2.2580 c3        1 MOL     -0.010230
     55 C18        -4.6890    0.8840    3.3250 c         1 MOL      0.461433
     56 O9         -4.6880    0.0810    4.2690 o         1 MOL     -0.514160
     57 H25        -2.8040   -0.9240    2.7630 hn        1 MOL      0.207798
     58 H26        -4.0610    1.1510    1.2840 h1        1 MOL      0.082061
     59 H27        -3.0560    1.9400    2.4630 h1        1 MOL      0.082061
     60 N6         -5.8160    1.6990    3.2420 n         1 MOL     -0.410355
     61 C19        -5.9310    2.7250    2.2760 c3        1 MOL      0.089334
     62 C20        -6.8070    2.1880    1.1240 c         1 MOL      0.436567
     63 O10        -7.5760    1.2220    1.2460 o         1 MOL     -0.438804
     64 C21        -6.4570    4.0060    2.8860 c3        1 MOL     -0.216962
     65 C22        -7.8360    3.7240    3.4890 c         1 MOL      0.679147
     66 O11        -7.8800    3.2670    4.6940 o         1 MOL     -0.646761
     67 O12        -8.8100    3.9290    2.7300 o         1 MOL     -0.646761
     68 H28        -6.5260    1.6150    3.9510 hn        1 MOL      0.315293
     69 H29        -4.9920    3.0090    1.8010 h1        1 MOL     -0.007470
     70 H30        -6.6370    4.7020    2.0620 hc        1 MOL      0.033087
     71 H31        -5.7160    4.2500    3.6520 hc        1 MOL      0.033087
     72 N7         -6.7580    2.7840   -0.0810 n         1 MOL     -0.204237
     73 C23        -7.6230    2.4360   -1.1910 c3        1 MOL     -0.379071
     74 C24        -7.5230    1.0050   -1.6340 c         1 MOL      0.529846
     75 O13        -8.4990    0.3700   -2.0020 o         1 MOL     -0.535994
     76 H32        -6.1850    3.6000   -0.2710 hn        1 MOL      0.201672
     77 H33        -7.3740    3.0780   -2.0360 h1        1 MOL      0.184062
     78 H34        -8.6710    2.6050   -0.9250 h1        1 MOL      0.184062
     79 N8         -6.3150    0.3800   -1.7050 n         1 MOL     -0.339888
     80 C25        -6.1750   -1.1170   -1.9480 c3        1 MOL     -0.109861
     81 C26        -5.0200   -1.6340   -1.0450 c         1 MOL      0.402430
     82 O14        -3.9690   -0.9630   -0.9730 o         1 MOL     -0.396951
     83 C27        -6.0200   -1.3990   -3.4500 c3        1 MOL      0.178751
     84 C28        -6.2080   -2.9150   -3.6390 c3        1 MOL     -0.180140
     85 O15        -4.7610   -1.1030   -3.9210 oh        1 MOL     -0.550089
     86 H35        -5.5070    0.9570   -1.5140 hn        1 MOL      0.168220
     87 H36        -7.0990   -1.5440   -1.5450 h1        1 MOL      0.147323
     88 H37        -6.7830   -0.8700   -4.0250 h1        1 MOL      0.073444
     89 H38        -4.7360   -0.1940   -4.2420 ho        1 MOL      0.378705
     90 H39        -6.0550   -3.2390   -4.6660 hc        1 MOL      0.053869
     91 H40        -5.6260   -3.5060   -2.9230 hc        1 MOL      0.053869
     92 H41        -7.2450   -3.1720   -3.4550 hc        1 MOL      0.053869
     93 N9         -5.1360   -2.8180   -0.4820 n         1 MOL     -0.269399
     94 C29        -4.1150   -3.5000    0.3220 c3        1 MOL     -0.164703
     95 C30        -2.9480   -4.1310   -0.4750 c         1 MOL      0.407719
     96 O16        -2.3910   -5.2080   -0.1630 o         1 MOL     -0.497735
     97 C31        -4.8360   -4.4920    1.2880 c3        1 MOL      0.060662
     98 C32        -5.5100   -5.6420    0.5410 c3        1 MOL      0.222307
     99 C33        -5.8470   -3.7730    2.2150 c3        1 MOL     -0.202669
    100 C34        -5.9610   -6.7360    1.4710 c3        1 MOL     -0.206242
    101 H42        -6.0210   -3.2690   -0.6690 hn        1 MOL      0.272866
    102 H43        -3.5640   -2.8210    0.9770 h1        1 MOL      0.164269
    103 H44        -4.1210   -4.9090    1.9910 hc        1 MOL      0.039938
    104 H45        -4.7760   -6.0700   -0.1420 hc        1 MOL     -0.052497
    105 H46        -6.3640   -5.2900   -0.0420 hc        1 MOL     -0.052497
    106 H47        -6.7220   -3.3860    1.6920 hc        1 MOL      0.052011
    107 H48        -6.1320   -4.3420    3.1100 hc        1 MOL      0.052011
    108 H49        -5.4640   -2.8330    2.5970 hc        1 MOL      0.052011
    109 H50        -6.7520   -6.4070    2.1420 hc        1 MOL      0.046259
    110 H51        -6.2690   -7.5920    0.8750 hc        1 MOL      0.046259
    111 H52        -5.0850   -7.0350    2.0610 hc        1 MOL      0.046259
    112 N10        -2.5520   -3.3610   -1.5260 n         1 MOL     -0.192533
    113 C35        -1.5490   -3.8200   -2.4790 c3        1 MOL      0.002372
    114 C36        -0.0710   -3.9170   -2.0170 c         1 MOL      0.216536
    115 O17         0.7250   -4.7030   -2.5560 o         1 MOL     -0.477771
    116 C37        -1.6190   -2.9540   -3.7620 c3        1 MOL      0.271199
    117 C38        -1.3800   -1.4760   -3.6380 c3        1 MOL     -0.067157
    118 O18        -2.8210   -3.2720   -4.3290 oh        1 MOL     -0.596243
    119 H53        -2.9630   -2.4590   -1.7080 hn        1 MOL      0.232179
    120 H54        -1.7270   -4.8410   -2.8320 h1        1 MOL      0.119159
    121 H55        -0.7810   -3.3060   -4.3640 h1        1 MOL      0.023442
    122 H56        -3.1710   -2.4040   -4.5560 ho        1 MOL      0.361329
    123 H57        -2.0440   -1.0110   -2.9120 hc        1 MOL      0.019412
    124 H58        -0.3710   -1.2740   -3.2680 hc        1 MOL      0.019412
    125 H59        -1.3880   -0.9100   -4.5680 hc        1 MOL      0.019412
    126 N11         0.2660   -3.0610   -1.0280 n         1 MOL     -0.200077
    127 C39         1.6940   -2.8330   -0.6160 c3        1 MOL      0.044085
    128 C40         2.5210   -2.1970   -1.7600 c         1 MOL      0.200627
    129 O19         2.2220   -2.2310   -2.9640 o         1 MOL     -0.456909
    130 C41         2.4520   -4.0830   -0.1170 c3        1 MOL      0.764402
    131 C42         1.7010   -5.1290    0.5990 c3        1 MOL     -0.522376
    132 O20         3.4460   -3.6860    0.8040 oh        1 MOL     -0.648171
    133 H60        -0.5100   -2.6070   -0.5600 hn        1 MOL      0.155619
    134 H61         1.6750   -2.1360    0.2160 h1        1 MOL     -0.015479
    135 H62         2.9360   -4.5280   -0.9850 h1        1 MOL     -0.119670
    136 H63         4.0240   -4.4470    0.7720 ho        1 MOL      0.341251
    137 H64         0.9760   -4.6570    1.2570 hc        1 MOL      0.120325
    138 H65         1.2280   -5.7980   -0.1200 hc        1 MOL      0.120325
    139 H66         2.4600   -5.7340    1.0790 hc        1 MOL      0.120325
    140 N12         3.6700   -1.6260   -1.3550 n         1 MOL      0.025691
    141 C43         4.7670   -1.0830   -2.2010 c3        1 MOL     -0.122688
    142 C44         5.0080    0.4260   -2.1890 c         1 MOL      0.529344
    143 O21         5.8340    0.9200   -2.9730 o         1 MOL     -0.589892
    144 C45         6.0940   -1.7550   -1.8030 c3        1 MOL     -0.005361
    145 C46         6.0130   -3.2400   -1.9310 c3        1 MOL     -0.065970
    146 C47         7.4150   -3.8610   -1.7650 c3        1 MOL      0.047936
    147 C48         8.3590   -3.6930   -2.9630 c3        1 MOL      0.060361
    148 N13         9.4470   -4.6720   -2.8880 n4        1 MOL     -0.340850
    149 H67         3.8890   -1.5640   -0.3690 hn        1 MOL      0.156172
    150 H68         4.4950   -1.2510   -3.2370 h1        1 MOL      0.083488
    151 H69         6.2750   -1.3840   -0.7870 hc        1 MOL      0.021091
    152 H70         6.8580   -1.3270   -2.4510 hc        1 MOL      0.021091
    153 H71         5.5740   -3.6690   -2.8380 hc        1 MOL      0.028451
    154 H72         5.4660   -3.6070   -1.0550 hc        1 MOL      0.028451
    155 H73         7.2530   -4.9190   -1.6150 hc        1 MOL     -0.007061
    156 H74         7.8980   -3.4360   -0.8800 hc        1 MOL     -0.007061
    157 H75         8.7340   -2.6700   -2.9480 hx        1 MOL      0.082801
    158 H76         7.8010   -3.9110   -3.8730 hx        1 MOL      0.082801
    159 H77         9.1860   -5.6030   -3.1660 hn        1 MOL      0.309901
    160 H78        10.0910   -4.3950   -3.6190 hn        1 MOL      0.309901
    161 H79         9.8400   -4.6470   -1.9600 hn        1 MOL      0.309901
    162 N14         4.4100    1.1060   -1.2640 n         1 MOL      0.022771
    163 C49         4.4090    2.5390   -1.3540 c3        1 MOL     -0.704658
    164 C50         5.8300    3.1610   -1.0570 c         1 MOL      0.510719
    165 O22         6.5840    2.6320   -0.2810 o         1 MOL     -0.476137
    166 C51         3.5230    3.0580   -0.1610 c3        1 MOL      0.774283
    167 C52         3.2560    4.5640   -0.1440 c3        1 MOL     -0.226125
    168 C53         2.8590    5.1130   -1.5150 c         1 MOL      0.500722
    169 O23         3.7980    5.6470   -2.1360 o         1 MOL     -0.648376
    170 O24         1.6920    4.9940   -1.8940 o         1 MOL     -0.648376
    171 H80         3.7780    0.6960   -0.5860 hn        1 MOL      0.012419
    172 H81         3.9960    2.7830   -2.3250 h1        1 MOL      0.306785
    173 H82         4.0910    2.8980    0.7490 hc        1 MOL     -0.125061
    174 H83         2.5640    2.5230   -0.1340 hc        1 MOL     -0.125061
    175 H84         4.1110    5.1070    0.2740 hc        1 MOL      0.027550
    176 H85         2.4240    4.5910    0.5470 hc        1 MOL      0.027550
    177 N15         6.2220    4.2130   -1.8220 n         1 MOL     -0.309723
    178 C54         7.5210    4.9230   -1.6730 c3        1 MOL      0.005643
    179 H86         7.3590    5.9980   -1.7540 h1        1 MOL      0.040863
    180 H87         7.9520    4.6940   -0.6980 h1        1 MOL      0.040863
    181 H88         8.2050    4.6000   -2.4570 h1        1 MOL      0.040863
    182 H89         5.4920    4.6190   -2.3800 hn        1 MOL      0.283296
    183 Ca1        -0.7460    4.8150   -2.5210 Ca        1 MOL      1.689948
    184 O25        -2.4970    5.6910   -4.4330 oh        1 MOL     -0.855300
    185 H90        -2.9230    5.3390   -5.2100 ho        1 MOL      0.425255
    186 H91        -1.9540    6.4100   -4.7650 ho        1 MOL      0.425255
    187 O26         0.1990    2.8660   -4.5010 oh        1 MOL     -0.855300
    188 H92        -0.3900    2.2870   -4.9940 ho        1 MOL      0.425255
    189 H93         0.5720    2.3120   -3.8130 ho        1 MOL      0.425255
    190 O27         0.5080    6.2520   -4.3580 oh        1 MOL     -0.855300
    191 H94         0.4370    7.1340   -3.9920 ho        1 MOL      0.425255
    192 H95         1.3550    6.2600   -4.8280 ho        1 MOL      0.425255
@<TRIPOS>BOND
     1    1    2 1   
     2    1    4 1   
     3    1    5 1   
     4    1    6 1   
     5    2    3 2   
     6    2    7 1   
     7    7    8 1   
     8    7   15 1   
     9    8    9 1   
    10    8   11 1   
    11    8   16 1   
    12    9   10 2   
    13    9   19 1   
    14   11   12 1   
    15   11   17 1   
    16   11   18 1   
    17   12   13 1   
    18   12   14 1   
    19   19   20 1   
    20   19   28 1   
    21   20   21 1   
    22   20   23 1   
    23   20   29 1   
    24   21   22 2   
    25   21   41 1   
    26   23   24 1   
    27   23   30 1   
    28   23   31 1   
    29   24   25 1   
    30   24   32 1   
    31   24   33 1   
    32   25   26 1   
    33   25   34 1   
    34   25   35 1   
    35   26   27 1   
    36   26   36 1   
    37   26   37 1   
    38   27   38 1   
    39   27   39 1   
    40   27   40 1   
    41   41   42 1   
    42   41   49 1   
    43   42   43 1   
    44   42   45 1   
    45   42   50 1   
    46   43   44 2   
    47   43   53 1   
    48   45   46 1   
    49   45   51 1   
    50   45   52 1   
    51   46   47 1   
    52   46   48 1   
    53   53   54 1   
    54   53   57 1   
    55   54   55 1   
    56   54   58 1   
    57   54   59 1   
    58   55   56 2   
    59   55   60 1   
    60   60   61 1   
    61   60   68 1   
    62   61   62 1   
    63   61   64 1   
    64   61   69 1   
    65   62   63 2   
    66   62   72 1   
    67   64   65 1   
    68   64   70 1   
    69   64   71 1   
    70   65   66 1   
    71   65   67 1   
    72   72   73 1   
    73   72   76 1   
    74   73   74 1   
    75   73   77 1   
    76   73   78 1   
    77   74   75 2   
    78   74   79 1   
    79   79   80 1   
    80   79   86 1   
    81   80   81 1   
    82   80   83 1   
    83   80   87 1   
    84   81   82 2   
    85   81   93 1   
    86   83   84 1   
    87   83   85 1   
    88   83   88 1   
    89   84   90 1   
    90   84   91 1   
    91   84   92 1   
    92   85   89 1   
    93   93   94 1   
    94   93  101 1   
    95   94   95 1   
    96   94   97 1   
    97   94  102 1   
    98   95   96 2   
    99   95  112 1   
   100   97   98 1   
   101   97   99 1   
   102   97  103 1   
   103   98  100 1   
   104   98  104 1   
   105   98  105 1   
   106   99  106 1   
   107   99  107 1   
   108   99  108 1   
   109  100  109 1   
   110  100  110 1   
   111  100  111 1   
   112  112  113 1   
   113  112  119 1   
   114  113  114 1   
   115  113  116 1   
   116  113  120 1   
   117  114  115 2   
   118  114  126 1   
   119  116  117 1   
   120  116  118 1   
   121  116  121 1   
   122  117  123 1   
   123  117  124 1   
   124  117  125 1   
   125  118  122 1   
   126  126  127 1   
   127  126  133 1   
   128  127  128 1   
   129  127  130 1   
   130  127  134 1   
   131  128  129 2   
   132  128  140 1   
   133  130  131 1   
   134  130  132 1   
   135  130  135 1   
   136  131  137 1   
   137  131  138 1   
   138  131  139 1   
   139  132  136 1   
   140  140  141 1   
   141  140  149 1   
   142  141  142 1   
   143  141  144 1   
   144  141  150 1   
   145  142  143 2   
   146  142  162 1   
   147  144  145 1   
   148  144  151 1   
   149  144  152 1   
   150  145  146 1   
   151  145  153 1   
   152  145  154 1   
   153  146  147 1   
   154  146  155 1   
   155  146  156 1   
   156  147  148 1   
   157  147  157 1   
   158  147  158 1   
   159  148  159 1   
   160  148  160 1   
   161  148  161 1   
   162  162  163 1   
   163  162  171 1   
   164  163  164 1   
   165  163  166 1   
   166  163  172 1   
   167  164  165 2   
   168  164  177 1   
   169  166  167 1   
   170  166  173 1   
   171  166  174 1   
   172  167  168 1   
   173  167  175 1   
   174  167  176 1   
   175  168  169 1   
   176  168  170 1   
   177  177  178 1   
   178  177  182 1   
   179  178  179 1   
   180  178  180 1   
   181  178  181 1   
   182  184  185 1   
   183  184  186 1   
   184  187  188 1   
   185  187  189 1   
   186  190  191 1   
   187  190  192 1   
@<TRIPOS>SUBSTRUCTURE
     1 MOL         1 TEMP              0 ****  ****    0 ROOT
