@<TRIPOS>MOLECULE
MOL
  175   173     1     0     0
SMALL
resp


@<TRIPOS>ATOM
      1 C1         -6.2780    7.5030    2.5230 c3        1 MOL     -0.430729
      2 C2         -7.2640    7.2020    1.3650 c         1 MOL      0.652733
      3 O1         -7.2670    8.0480    0.4410 o         1 MOL     -0.578303
      4 H1         -5.3150    7.8030    2.1100 hc        1 MOL      0.101209
      5 H2         -6.6760    8.3090    3.1380 hc        1 MOL      0.101209
      6 H3         -6.1490    6.6090    3.1320 hc        1 MOL      0.101209
      7 N1         -7.9830    6.1070    1.4260 n         1 MOL     -0.448263
      8 C3         -8.7640    5.5620    0.3430 c3        1 MOL      0.012328
      9 C4         -7.8610    4.6710   -0.6260 c         1 MOL      0.553089
     10 O2         -8.2370    4.5300   -1.8150 o         1 MOL     -0.518184
     11 C5         -9.8440    4.6680    0.9550 c3        1 MOL      0.001260
     12 C6        -10.9520    4.2950   -0.0130 c         1 MOL      0.641057
     13 O3        -11.5370    5.2430   -0.6650 o         1 MOL     -0.716066
     14 O4        -11.1560    3.0720   -0.1880 o         1 MOL     -0.716066
     15 H4         -7.9100    5.5700    2.2730 hn        1 MOL      0.263543
     16 H5         -9.2040    6.4110   -0.1760 h1        1 MOL      0.072277
     17 H6        -10.3780    5.0460    1.8290 hc        1 MOL     -0.035491
     18 H7         -9.4300    3.7120    1.2770 hc        1 MOL     -0.035491
     19 N2         -6.8300    3.9970   -0.1100 n         1 MOL     -0.444288
     20 C7         -5.7100    3.2290   -0.7440 c3        1 MOL      0.082488
     21 C8         -5.0700    2.2410    0.2740 c         1 MOL      0.573040
     22 O5         -4.8680    2.6620    1.4200 o         1 MOL     -0.575802
     23 C9         -4.7500    4.2280   -1.2940 c3        1 MOL     -0.277644
     24 H8         -6.8150    4.0170    0.9010 hn        1 MOL      0.245474
     25 H9         -6.1000    2.6620   -1.5880 h1        1 MOL      0.084840
     26 H10        -3.9080    3.7080   -1.7560 hc        1 MOL      0.091517
     27 H11        -5.2270    4.8790   -2.0280 hc        1 MOL      0.091517
     28 H12        -4.3610    4.8930   -0.5240 hc        1 MOL      0.091517
     29 N3         -4.7650    1.0210    0.0530 n         1 MOL     -0.353717
     30 C10        -5.2290    0.1980   -1.0680 c3        1 MOL     -0.066758
     31 C11        -5.6750   -1.1760   -0.6160 c         1 MOL      0.526912
     32 O6         -4.9890   -1.7640    0.2490 o         1 MOL     -0.527802
     33 C12        -4.2540    0.2500   -2.2130 c3        1 MOL     -0.199890
     34 C13        -2.8700   -0.3460   -1.8070 c         1 MOL      0.753875
     35 O7         -2.0260    0.3760   -1.2120 o         1 MOL     -0.730212
     36 O8         -2.5740   -1.4790   -2.1420 o         1 MOL     -0.730212
     37 H13        -4.2720    0.5510    0.7940 hn        1 MOL      0.268548
     38 H14        -6.1330    0.6110   -1.5010 h1        1 MOL      0.059031
     39 H15        -3.9940    1.2920   -2.4320 hc        1 MOL      0.054652
     40 H16        -4.6060   -0.3140   -3.0730 hc        1 MOL      0.054652
     41 N4         -6.7540   -1.8660   -1.1580 n         1 MOL     -0.456368
     42 C14        -7.1950   -3.2420   -0.7200 c3        1 MOL      0.061134
     43 C15        -6.8850   -4.2640   -1.8150 c         1 MOL      0.537547
     44 O9         -7.8130   -4.6210   -2.4890 o         1 MOL     -0.549917
     45 H17        -7.2170   -1.4340   -1.9450 hn        1 MOL      0.330986
     46 H18        -8.2830   -3.2460   -0.5870 h1        1 MOL      0.063901
     47 H19        -6.6140   -3.4960    0.1620 h1        1 MOL      0.063901
     48 N5         -5.6580   -4.6940   -2.2390 n         1 MOL     -0.526782
     49 C16        -4.4170   -4.3690   -1.5640 c3        1 MOL      0.046662
     50 C17        -4.4650   -4.9660   -0.1060 c         1 MOL      0.543549
     51 O10        -5.1020   -5.9660    0.0840 o         1 MOL     -0.550219
     52 C18        -3.2880   -4.8790   -2.4790 c3        1 MOL     -0.003548
     53 C19        -1.8500   -4.5690   -2.0370 c         1 MOL      0.240644
     54 N6         -0.8300   -5.0480   -2.7010 n         1 MOL     -0.501044
     55 O11        -1.4930   -3.8990   -1.0810 o         1 MOL     -0.242238
     56 H20        -5.7180   -5.3240   -3.0250 hn        1 MOL      0.316549
     57 H21        -4.3020   -3.2830   -1.5940 h1        1 MOL      0.061766
     58 H22        -3.5410   -4.3980   -3.4160 hc        1 MOL      0.043610
     59 H23        -3.4420   -5.9230   -2.7470 hc        1 MOL      0.043610
     60 H24        -1.0070   -5.5200   -3.5770 hn        1 MOL      0.285265
     61 H25         0.0630   -4.7610   -2.3170 hn        1 MOL      0.285265
     62 N7         -3.6230   -4.4990    0.8420 n         1 MOL     -0.302922
     63 C20        -3.4450   -4.8940    2.2220 c3        1 MOL     -0.056693
     64 C21        -2.1050   -5.3560    2.7240 c         1 MOL      0.457020
     65 O12        -2.0660   -6.0590    3.7770 o         1 MOL     -0.568027
     66 H26        -3.0330   -3.7420    0.5160 hn        1 MOL      0.307629
     67 H27        -4.0680   -5.7750    2.4200 h1        1 MOL      0.069363
     68 H28        -3.8620   -4.0730    2.8070 h1        1 MOL      0.069363
     69 N8         -1.0100   -5.0390    1.9880 n         1 MOL     -0.010331
     70 C22         0.4720   -5.1610    2.2540 c3        1 MOL     -0.077180
     71 C23         1.2420   -3.8480    2.0570 c         1 MOL      0.302860
     72 O13         0.7510   -2.9320    1.3010 o         1 MOL     -0.447044
     73 C24         1.1330   -6.3110    1.4010 c3        1 MOL      0.487830
     74 C25         0.5280   -7.6620    1.7780 c3        1 MOL     -0.619906
     75 O14         0.8770   -6.1470    0.0170 oh        1 MOL     -0.680451
     76 H29        -1.1930   -4.4930    1.1640 hn        1 MOL     -0.079781
     77 H30         0.7120   -5.4640    3.2640 h1        1 MOL      0.034796
     78 H31         2.1930   -6.3730    1.6570 h1        1 MOL     -0.025146
     79 H32         1.6610   -5.7590   -0.3630 ho        1 MOL      0.466905
     80 H33         1.2880   -8.3280    1.3690 hc        1 MOL      0.155925
     81 H34         0.3610   -7.7000    2.8510 hc        1 MOL      0.155925
     82 H35        -0.4390   -7.7300    1.2760 hc        1 MOL      0.155925
     83 N9          2.4340   -3.7340    2.6300 n         1 MOL     -0.244998
     84 C26         3.2720   -2.5980    2.3590 c3        1 MOL      0.026011
     85 C27         4.1960   -2.9750    1.2060 c         1 MOL      0.173317
     86 O15         4.9820   -3.9190    1.3870 o         1 MOL     -0.514613
     87 C28         4.1980   -2.2360    3.5310 c3        1 MOL      0.210214
     88 C29         4.9780   -0.8600    3.4070 c3        1 MOL      0.099609
     89 C30         3.3700   -2.0790    4.8570 c3        1 MOL     -0.430918
     90 C31         5.9170   -0.5570    4.6380 c3        1 MOL     -0.169371
     91 H36         2.7450   -4.5180    3.1810 hn        1 MOL      0.277930
     92 H37         2.7650   -1.7000    1.9980 h1        1 MOL      0.071403
     93 H38         4.8010   -3.1060    3.7660 hc        1 MOL      0.000032
     94 H39         4.2660   -0.0470    3.2810 hc        1 MOL     -0.047541
     95 H40         5.4310   -0.8950    2.4210 hc        1 MOL     -0.047541
     96 H41         2.6450   -1.2760    4.7030 hc        1 MOL      0.100130
     97 H42         2.8740   -3.0070    5.1420 hc        1 MOL      0.100130
     98 H43         4.0110   -1.7880    5.6910 hc        1 MOL      0.100130
     99 H44         6.6230    0.2370    4.4160 hc        1 MOL      0.039957
    100 H45         5.3010   -0.3180    5.5110 hc        1 MOL      0.039957
    101 H46         6.4070   -1.5100    4.8750 hc        1 MOL      0.039957
    102 N10         4.1060   -2.2260    0.0880 n         1 MOL     -0.003065
    103 C32         4.7440   -2.5980   -1.1200 c3        1 MOL      0.017870
    104 C33         5.7260   -1.5520   -1.6680 c         1 MOL      0.623452
    105 O16         6.0720   -1.6100   -2.8490 o         1 MOL     -0.566630
    106 C34         3.7270   -2.9710   -2.1900 c3        1 MOL     -0.225952
    107 C35         2.5830   -3.8150   -1.5950 c         1 MOL      0.852963
    108 O17         2.7210   -4.9920   -1.3360 o         1 MOL     -0.726372
    109 O18         1.4080   -3.3540   -1.5920 o         1 MOL     -0.726372
    110 H47         3.4060   -1.5030    0.0310 hn        1 MOL      0.089228
    111 H48         5.4110   -3.4560   -1.0300 h1        1 MOL      0.076947
    112 H49         4.1650   -3.4150   -3.0800 hc        1 MOL      0.030128
    113 H50         3.2890   -2.0320   -2.5350 hc        1 MOL      0.030128
    114 N11         6.1020   -0.5580   -0.8650 n         1 MOL     -0.649312
    115 C36         6.9140    0.6900   -1.1980 c3        1 MOL      0.369588
    116 C37         6.3070    1.9610   -0.5610 c         1 MOL      0.334568
    117 O19         6.0130    1.9810    0.6310 o         1 MOL     -0.492894
    118 C38         8.3600    0.5190   -0.8110 c3        1 MOL     -0.197983
    119 C39         9.1940    1.7510   -1.1860 ca        1 MOL      0.062042
    120 C40         9.3840    2.7830   -0.2420 ca        1 MOL     -0.151516
    121 C41         9.7450    1.8480   -2.4490 ca        1 MOL     -0.151516
    122 C42        10.0350    3.9410   -0.6840 ca        1 MOL     -0.116370
    123 C43        10.4330    3.0700   -2.8830 ca        1 MOL     -0.116370
    124 C44        10.5090    4.1290   -1.9880 ca        1 MOL     -0.105660
    125 H51         5.6170   -0.4420    0.0070 hn        1 MOL      0.306352
    126 H52         6.9410    0.8120   -2.2780 h1        1 MOL     -0.017323
    127 H53         8.7920   -0.3690   -1.2730 hc        1 MOL      0.086209
    128 H54         8.3400    0.2930    0.2530 hc        1 MOL      0.086209
    129 H55         8.9410    2.6230    0.7260 ha        1 MOL      0.123400
    130 H56         9.5310    1.1330   -3.2270 ha        1 MOL      0.123400
    131 H57        10.1460    4.7600    0.0090 ha        1 MOL      0.107744
    132 H58        10.8180    3.0760   -3.8950 ha        1 MOL      0.107744
    133 H59        10.9270    5.0570   -2.3280 ha        1 MOL      0.107388
    134 N12         6.3840    3.1200   -1.2750 n         1 MOL      0.074404
    135 C45         6.2670    4.5320   -0.8470 c3        1 MOL     -0.102125
    136 C46         5.0460    5.0230   -0.0130 c         1 MOL      0.356727
    137 O20         4.9600    6.0690    0.7100 o         1 MOL     -0.533890
    138 C47         6.3960    5.4010   -2.0740 c3        1 MOL     -0.101732
    139 C48         5.8860    4.4440   -3.1890 c3        1 MOL      0.193293
    140 C49         6.5020    3.1350   -2.7500 c3        1 MOL     -0.626422
    141 H60         7.0980    4.7120   -0.1690 h1        1 MOL      0.079602
    142 H61         5.8200    6.3220   -2.0280 hc        1 MOL      0.070551
    143 H62         7.4330    5.6210   -2.3230 hc        1 MOL      0.070551
    144 H63         4.7980    4.4280   -3.0780 hc        1 MOL     -0.004612
    145 H64         6.1790    4.8530   -4.1560 hc        1 MOL     -0.004612
    146 H65         5.9540    2.3290   -3.2310 h1        1 MOL      0.210089
    147 H66         7.5660    3.0770   -2.9930 h1        1 MOL      0.210089
    148 N13         3.9850    4.1940   -0.0240 n         1 MOL     -0.056161
    149 C50         2.6950    4.4420    0.5960 c3        1 MOL     -0.266819
    150 C51         2.7980    4.7580    2.1370 c         1 MOL      0.574128
    151 O21         1.8740    5.3470    2.6880 o         1 MOL     -0.544639
    152 C52         1.8690    3.1640    0.2970 c3        1 MOL     -0.115111
    153 C53         2.2430    1.8190    1.0180 c3        1 MOL     -0.037134
    154 C54         1.3770    0.6680    0.5100 c         1 MOL      0.505162
    155 O22         1.9360   -0.2800   -0.1240 o         1 MOL     -0.627782
    156 O23         0.2150    0.5700    0.9320 o         1 MOL     -0.627782
    157 H67         4.1570    3.3180   -0.5100 hn        1 MOL      0.162951
    158 H68         2.2070    5.2570    0.0530 h1        1 MOL      0.146472
    159 H69         1.8290    2.9630   -0.7710 hc        1 MOL      0.071422
    160 H70         0.8330    3.3620    0.5950 hc        1 MOL      0.071422
    161 H71         2.1900    1.9040    2.1000 hc        1 MOL      0.041886
    162 H72         3.2840    1.6610    0.7390 hc        1 MOL      0.041886
    163 N14         3.8630    4.4340    2.8400 n         1 MOL     -0.165824
    164 C55         3.8870    4.6800    4.3270 c3        1 MOL     -0.187648
    165 H73         2.9550    4.3240    4.7680 h1        1 MOL      0.089238
    166 H74         4.7260    4.1440    4.7710 h1        1 MOL      0.089238
    167 H75         3.9940    5.7480    4.5180 h1        1 MOL      0.089238
    168 H76         4.5520    3.8300    2.4180 hn        1 MOL      0.191243
    169 Ca1        -0.2690   -1.5970   -0.7120 Ca        1 MOL      1.659518
    170 O24         0.5900   -1.1790   -3.2080 oh        1 MOL     -0.906832
    171 H77         0.2840   -1.4370   -4.0710 ho        1 MOL      0.430409
    172 H78         1.4800   -0.8390   -3.3620 ho        1 MOL      0.430409
    173 O25        -2.3020   -1.7120    1.0930 oh        1 MOL     -0.906832
    174 H79        -2.3280   -0.8720    1.5500 ho        1 MOL      0.430409
    175 H80        -3.1770   -1.7990    0.7160 ho        1 MOL      0.430409
@<TRIPOS>BOND
     1    1    2 1   
     2    1    4 1   
     3    1    5 1   
     4    1    6 1   
     5    2    3 2   
     6    2    7 1   
     7    7    8 1   
     8    7   15 1   
     9    8    9 1   
    10    8   11 1   
    11    8   16 1   
    12    9   10 2   
    13    9   19 1   
    14   11   12 1   
    15   11   17 1   
    16   11   18 1   
    17   12   13 1   
    18   12   14 1   
    19   19   20 1   
    20   19   24 1   
    21   20   21 1   
    22   20   23 1   
    23   20   25 1   
    24   21   22 2   
    25   21   29 1   
    26   23   26 1   
    27   23   27 1   
    28   23   28 1   
    29   29   30 1   
    30   29   37 1   
    31   30   31 1   
    32   30   33 1   
    33   30   38 1   
    34   31   32 2   
    35   31   41 1   
    36   33   34 1   
    37   33   39 1   
    38   33   40 1   
    39   34   35 1   
    40   34   36 1   
    41   41   42 1   
    42   41   45 1   
    43   42   43 1   
    44   42   46 1   
    45   42   47 1   
    46   43   44 2   
    47   43   48 1   
    48   48   49 1   
    49   48   56 1   
    50   49   50 1   
    51   49   52 1   
    52   49   57 1   
    53   50   51 2   
    54   50   62 1   
    55   52   53 1   
    56   52   58 1   
    57   52   59 1   
    58   53   54 1   
    59   53   55 2   
    60   54   60 1   
    61   54   61 1   
    62   62   63 1   
    63   62   66 1   
    64   63   64 1   
    65   63   67 1   
    66   63   68 1   
    67   64   65 2   
    68   64   69 1   
    69   69   70 1   
    70   69   76 1   
    71   70   71 1   
    72   70   73 1   
    73   70   77 1   
    74   71   72 2   
    75   71   83 1   
    76   73   74 1   
    77   73   75 1   
    78   73   78 1   
    79   74   80 1   
    80   74   81 1   
    81   74   82 1   
    82   75   79 1   
    83   83   84 1   
    84   83   91 1   
    85   84   85 1   
    86   84   87 1   
    87   84   92 1   
    88   85   86 2   
    89   85  102 1   
    90   87   88 1   
    91   87   89 1   
    92   87   93 1   
    93   88   90 1   
    94   88   94 1   
    95   88   95 1   
    96   89   96 1   
    97   89   97 1   
    98   89   98 1   
    99   90   99 1   
   100   90  100 1   
   101   90  101 1   
   102  102  103 1   
   103  102  110 1   
   104  103  104 1   
   105  103  106 1   
   106  103  111 1   
   107  104  105 2   
   108  104  114 1   
   109  106  107 1   
   110  106  112 1   
   111  106  113 1   
   112  107  108 1   
   113  107  109 1   
   114  114  115 1   
   115  114  125 1   
   116  115  116 1   
   117  115  118 1   
   118  115  126 1   
   119  116  117 2   
   120  116  134 1   
   121  118  119 1   
   122  118  127 1   
   123  118  128 1   
   124  119  120 ar  
   125  119  121 ar  
   126  120  122 ar  
   127  120  129 1   
   128  121  123 ar  
   129  121  130 1   
   130  122  124 ar  
   131  122  131 1   
   132  123  124 ar  
   133  123  132 1   
   134  124  133 1   
   135  134  135 1   
   136  134  140 1   
   137  135  136 1   
   138  135  138 1   
   139  135  141 1   
   140  136  137 2   
   141  136  148 1   
   142  138  139 1   
   143  138  142 1   
   144  138  143 1   
   145  139  140 1   
   146  139  144 1   
   147  139  145 1   
   148  140  146 1   
   149  140  147 1   
   150  148  149 1   
   151  148  157 1   
   152  149  150 1   
   153  149  152 1   
   154  149  158 1   
   155  150  151 2   
   156  150  163 1   
   157  152  153 1   
   158  152  159 1   
   159  152  160 1   
   160  153  154 1   
   161  153  161 1   
   162  153  162 1   
   163  154  155 1   
   164  154  156 1   
   165  163  164 1   
   166  163  168 1   
   167  164  165 1   
   168  164  166 1   
   169  164  167 1   
   170  170  171 1   
   171  170  172 1   
   172  173  174 1   
   173  173  175 1   
@<TRIPOS>SUBSTRUCTURE
     1 MOL         1 TEMP              0 ****  ****    0 ROOT
