@<TRIPOS>MOLECULE
MOL
  181   177     1     0     0
SMALL
resp


@<TRIPOS>ATOM
      1 C1          0.8740    6.2180   -3.2720 c3        1 MOL     -0.400607
      2 C2          2.2010    6.3760   -2.5890 c         1 MOL      0.701480
      3 O1          2.2810    6.9960   -1.4850 o         1 MOL     -0.613878
      4 H1          0.7490    5.1820   -3.5860 hc        1 MOL      0.101067
      5 H2          0.0750    6.4880   -2.5820 hc        1 MOL      0.101067
      6 H3          0.8350    6.8690   -4.1460 hc        1 MOL      0.101067
      7 N1          3.2840    5.9080   -3.2250 n         1 MOL     -0.606415
      8 C3          4.5850    5.8980   -2.5780 c3        1 MOL      0.328494
      9 C4          4.6800    4.8610   -1.4200 c         1 MOL      0.479992
     10 O2          4.9680    3.6790   -1.5960 o         1 MOL     -0.541205
     11 C5          5.7640    5.8020   -3.6220 c3        1 MOL     -0.272032
     12 C6          7.1480    6.0290   -2.9490 c         1 MOL      0.748345
     13 O3          7.3020    6.4550   -1.7500 o         1 MOL     -0.732442
     14 O4          8.1000    5.7340   -3.6780 o         1 MOL     -0.732442
     15 H4          3.1120    5.5020   -4.1310 hn        1 MOL      0.301311
     16 H5          4.8030    6.8520   -2.0970 h1        1 MOL     -0.035259
     17 H6          5.5720    6.5620   -4.3750 hc        1 MOL      0.041035
     18 H7          5.7250    4.7880   -4.0290 hc        1 MOL      0.041035
     19 N2          4.6320    5.3720   -0.1930 n         1 MOL     -0.569232
     20 C7          4.6570    4.5320    1.0280 c3        1 MOL      0.349197
     21 C8          3.5170    3.5330    0.9960 c         1 MOL      0.564992
     22 O5          2.4540    3.7050    0.4080 o         1 MOL     -0.570966
     23 C9          4.6430    5.5120    2.1840 c3        1 MOL     -0.358837
     24 H8          4.5370    6.3790   -0.1710 hn        1 MOL      0.329511
     25 H9          5.6000    3.9930    1.0750 h1        1 MOL      0.066964
     26 H10         4.3760    4.9670    3.0970 hc        1 MOL      0.093702
     27 H11         5.5890    6.0370    2.3360 hc        1 MOL      0.093702
     28 H12         3.8980    6.2890    2.0190 hc        1 MOL      0.093702
     29 N3          3.5760    2.3700    1.6090 n         1 MOL     -0.549764
     30 C10         4.5600    1.7500    2.4830 c3        1 MOL      0.004435
     31 C11         4.9000    0.2590    2.0800 c         1 MOL      0.628843
     32 O6          4.2230   -0.2940    1.1260 o         1 MOL     -0.548473
     33 C12         4.2190    1.8300    4.0300 c3        1 MOL     -0.295587
     34 C13         2.8000    1.3880    4.3630 c         1 MOL      0.840243
     35 O7          2.2330    0.6220    3.5600 o         1 MOL     -0.746180
     36 O8          2.3180    1.7060    5.5040 o         1 MOL     -0.746180
     37 H13         2.6680    1.9480    1.5710 hn        1 MOL      0.391972
     38 H14         5.5520    2.1830    2.4190 h1        1 MOL      0.035795
     39 H15         4.4090    2.8450    4.3870 hc        1 MOL      0.064171
     40 H16         4.8040    1.1110    4.5930 hc        1 MOL      0.064171
     41 N4          5.9370   -0.2810    2.7230 n         1 MOL     -0.383630
     42 C14         6.5590   -1.5790    2.3650 c3        1 MOL     -0.136678
     43 C15         7.6330   -1.5020    1.2930 c         1 MOL      0.622874
     44 O9          8.4280   -0.5380    1.3620 o         1 MOL     -0.554726
     45 H17         6.3400    0.1540    3.5430 hn        1 MOL      0.318605
     46 H18         5.7990   -2.2120    1.9170 h1        1 MOL      0.069015
     47 H19         7.0180   -2.0040    3.2640 h1        1 MOL      0.069015
     48 N5          7.8230   -2.3670    0.2660 n         1 MOL     -0.477067
     49 C16         7.0210   -3.5170   -0.2380 c3        1 MOL      0.135495
     50 C17         6.4800   -3.2410   -1.6720 c         1 MOL      0.501851
     51 O10         7.1630   -2.6560   -2.4740 o         1 MOL     -0.466139
     52 C18         7.9780   -4.7520   -0.1440 c3        1 MOL     -0.305914
     53 C19         8.9280   -4.8680    1.0220 c         1 MOL      0.655972
     54 N6          8.5020   -4.9630    2.2880 n         1 MOL     -0.820487
     55 O11        10.1650   -4.7570    0.8830 o         1 MOL     -0.545708
     56 H20         8.5900   -2.0690   -0.3160 hn        1 MOL      0.314095
     57 H21         6.2260   -3.6980    0.4860 h1        1 MOL      0.059887
     58 H22         8.5660   -4.7920   -1.0540 hc        1 MOL      0.088153
     59 H23         7.3490   -5.6430   -0.1100 hc        1 MOL      0.088153
     60 H24         7.5280   -5.1820    2.4560 hn        1 MOL      0.381498
     61 H25         9.2470   -4.7530    2.9410 hn        1 MOL      0.381498
     62 N7          5.3880   -3.9320   -2.1000 n         1 MOL     -0.349018
     63 C20         4.8860   -3.9750   -3.4840 c3        1 MOL     -0.079784
     64 C21         3.5710   -4.7900   -3.4530 c         1 MOL      0.456364
     65 O12         3.2930   -5.8010   -4.1570 o         1 MOL     -0.545213
     66 H26         4.8780   -4.4380   -1.3940 hn        1 MOL      0.213785
     67 H27         5.5590   -4.5110   -4.1560 h1        1 MOL      0.113193
     68 H28         4.7340   -2.9670   -3.8710 h1        1 MOL      0.113193
     69 N8          2.6150   -4.3950   -2.6270 n         1 MOL     -0.329922
     70 C22         1.2650   -4.9380   -2.3730 c3        1 MOL      0.053807
     71 C23         0.2130   -3.8530   -2.1390 c         1 MOL      0.566888
     72 O13         0.3740   -2.6430   -2.4080 o         1 MOL     -0.521459
     73 C24         1.2050   -5.9250   -1.1530 c3        1 MOL      0.265852
     74 C25         2.0530   -7.1510   -1.2350 c3        1 MOL     -0.317967
     75 O14         1.6530   -5.1080   -0.1000 oh        1 MOL     -0.598272
     76 H29         2.7630   -3.4970   -2.1780 hn        1 MOL      0.242989
     77 H30         0.8880   -5.4840   -3.2330 h1        1 MOL      0.088645
     78 H31         0.2320   -6.4110   -1.0160 h1        1 MOL      0.032538
     79 H32         1.6010   -5.6520    0.6890 ho        1 MOL      0.411139
     80 H33         1.9510   -7.6340   -0.2630 hc        1 MOL      0.077261
     81 H34         1.7170   -7.7660   -2.0660 hc        1 MOL      0.077261
     82 H35         3.1340   -6.9920   -1.2840 hc        1 MOL      0.077261
     83 N9         -1.0400   -4.3260   -1.8650 n         1 MOL     -0.523694
     84 C26        -2.2870   -3.5660   -1.6580 c3        1 MOL     -0.051673
     85 C27        -2.9410   -3.9900   -0.3010 c         1 MOL      0.594598
     86 O15        -3.1650   -5.1590   -0.0510 o         1 MOL     -0.567357
     87 C28        -3.3590   -3.8610   -2.7300 c3        1 MOL      0.060706
     88 C29        -4.6480   -3.0090   -2.5570 c3        1 MOL      0.376606
     89 C30        -2.7920   -3.8550   -4.1700 c3        1 MOL     -0.158452
     90 C31        -5.8550   -3.2170   -3.5040 c3        1 MOL     -0.283235
     91 H36        -1.1810   -5.3200   -1.9260 hn        1 MOL      0.263190
     92 H37        -2.0750   -2.5000   -1.6430 h1        1 MOL      0.206302
     93 H38        -3.6790   -4.9010   -2.5910 hc        1 MOL     -0.006976
     94 H39        -4.3440   -1.9750   -2.7260 hc        1 MOL     -0.114323
     95 H40        -5.0170   -3.1000   -1.5310 hc        1 MOL     -0.114323
     96 H41        -2.4730   -2.8610   -4.5000 hc        1 MOL      0.033754
     97 H42        -1.9240   -4.5060   -4.2610 hc        1 MOL      0.033754
     98 H43        -3.5280   -4.1790   -4.9080 hc        1 MOL      0.033754
     99 H44        -6.4760   -2.3270   -3.3650 hc        1 MOL      0.046789
    100 H45        -5.4290   -3.2020   -4.5150 hc        1 MOL      0.046789
    101 H46        -6.3650   -4.1590   -3.2990 hc        1 MOL      0.046789
    102 N10        -3.2800   -3.0230    0.6100 n         1 MOL     -0.523905
    103 C32        -4.0030   -3.3520    1.8540 c3        1 MOL      0.143267
    104 C33        -5.2650   -2.4250    2.0510 c         1 MOL      0.390725
    105 O16        -6.0130   -2.7180    2.9560 o         1 MOL     -0.539559
    106 C34        -2.9380   -3.3660    3.0530 c3        1 MOL     -0.253400
    107 C35        -2.0570   -2.1060    3.1460 c         1 MOL      0.981573
    108 O17        -0.8230   -2.2500    3.1610 o         1 MOL     -0.842199
    109 O18        -2.5350   -0.9760    3.3490 o         1 MOL     -0.842199
    110 H47        -3.2700   -2.0790    0.2520 hn        1 MOL      0.235865
    111 H48        -4.4120   -4.3580    1.8360 h1        1 MOL      0.069433
    112 H49        -2.3310   -4.2740    3.0250 hc        1 MOL      0.061921
    113 H50        -3.4610   -3.3770    4.0020 hc        1 MOL      0.061921
    114 N11        -5.4780   -1.3010    1.2900 n         1 MOL     -0.152456
    115 C36        -6.6280   -0.4050    1.4180 c3        1 MOL      0.243755
    116 C37        -6.3480    0.9980    0.8280 c         1 MOL      0.271088
    117 O19        -6.8470    1.2940   -0.2590 o         1 MOL     -0.464927
    118 C38        -7.7120   -1.2350    0.7240 c3        1 MOL     -0.395621
    119 C39        -9.0470   -0.5660    0.4950 ca        1 MOL      0.115295
    120 C40        -9.7170   -0.8290   -0.7170 ca        1 MOL     -0.070365
    121 C41        -9.6390    0.2820    1.4930 ca        1 MOL     -0.070365
    122 C42       -11.0180   -0.3920   -0.9220 ca        1 MOL     -0.211643
    123 C43       -10.9930    0.6820    1.3170 ca        1 MOL     -0.211643
    124 C44       -11.6500    0.3700    0.1070 ca        1 MOL     -0.080389
    125 H51        -4.7330   -1.0790    0.6330 hn        1 MOL      0.183006
    126 H52        -6.7760   -0.2950    2.4930 h1        1 MOL      0.030187
    127 H53        -7.9540   -2.1040    1.3290 hc        1 MOL      0.134098
    128 H54        -7.3920   -1.5030   -0.2900 hc        1 MOL      0.134098
    129 H55        -9.1510   -1.3540   -1.4860 ha        1 MOL      0.092691
    130 H56        -9.1510    0.4700    2.4380 ha        1 MOL      0.092691
    131 H57       -11.5600   -0.6190   -1.8240 ha        1 MOL      0.126759
    132 H58       -11.3450    1.3110    2.1230 ha        1 MOL      0.126759
    133 H59       -12.6210    0.7870   -0.0630 ha        1 MOL      0.091088
    134 N12        -5.5710    1.8900    1.4930 n         1 MOL     -0.190250
    135 C45        -5.3610    3.3280    1.0820 c3        1 MOL      0.040059
    136 C46        -4.8040    3.4260   -0.2830 c         1 MOL      0.299003
    137 O20        -4.8390    4.5100   -0.8550 o         1 MOL     -0.509450
    138 C47        -4.3810    3.9170    2.1770 c3        1 MOL     -0.174986
    139 C48        -3.6870    2.6780    2.7560 c3        1 MOL      0.069661
    140 C49        -4.6970    1.5600    2.5800 c3        1 MOL     -0.061512
    141 H60        -6.2710    3.9290    1.0580 h1        1 MOL      0.099327
    142 H61        -3.6430    4.6620    1.9020 hc        1 MOL      0.076593
    143 H62        -5.1270    4.2770    2.8880 hc        1 MOL      0.076593
    144 H63        -2.7980    2.4590    2.1530 hc        1 MOL      0.008100
    145 H64        -3.4920    2.8680    3.8140 hc        1 MOL      0.008100
    146 H65        -4.1150    0.6990    2.2580 h1        1 MOL      0.055956
    147 H66        -5.2220    1.3740    3.5230 h1        1 MOL      0.055956
    148 N13        -4.2600    2.3940   -0.9210 n         1 MOL     -0.051378
    149 C50        -3.8380    2.4110   -2.3170 c3        1 MOL     -0.370873
    150 C51        -5.0230    2.5990   -3.3010 c         1 MOL      0.580985
    151 O21        -4.8660    3.3550   -4.2590 o         1 MOL     -0.557095
    152 C52        -3.0060    1.1380   -2.6620 c3        1 MOL      0.025079
    153 C53        -1.8430    0.8730   -1.6450 c3        1 MOL     -0.271032
    154 C54        -2.1750    0.0750   -0.4230 c         1 MOL      0.680417
    155 O22        -1.3780    0.2030    0.5370 o         1 MOL     -0.720006
    156 O23        -3.2600   -0.4460   -0.3380 o         1 MOL     -0.720006
    157 H67        -4.2000    1.4920   -0.4690 hn        1 MOL      0.322506
    158 H68        -3.1410    3.2360   -2.4700 h1        1 MOL      0.163798
    159 H69        -2.5230    1.2570   -3.6290 hc        1 MOL      0.041887
    160 H70        -3.6690    0.2810   -2.6680 hc        1 MOL      0.041887
    161 H71        -1.4750    1.8550   -1.3390 hc        1 MOL      0.090066
    162 H72        -1.0420    0.3630   -2.1720 hc        1 MOL      0.090066
    163 N14        -6.1200    1.8680   -3.0850 n         1 MOL     -0.272575
    164 C55        -7.3300    1.9690   -3.9530 c3        1 MOL     -0.202520
    165 H73        -7.5740    0.9830   -4.3510 h1        1 MOL      0.091972
    166 H74        -8.1690    2.3410   -3.3650 h1        1 MOL      0.091972
    167 H75        -7.1300    2.6530   -4.7770 h1        1 MOL      0.091972
    168 H76        -6.1880    1.2440   -2.3000 hn        1 MOL      0.267092
    169 Ca1        -0.2170    0.3210    2.7900 Ca        1 MOL      1.778486
    170 O24        -0.4090    2.7780    3.8420 oh        1 MOL     -0.874522
    171 H77        -0.5630    3.2010    4.6900 ho        1 MOL      0.413824
    172 H78        -0.4560    3.4900    3.2040 ho        1 MOL      0.413824
    173 O25         0.1160    2.5110    1.1200 oh        1 MOL     -0.874522
    174 H79         0.7260    3.0980    0.6780 ho        1 MOL      0.413824
    175 H80        -0.5140    2.2590    0.4320 ho        1 MOL      0.413824
    176 O26         0.0210   -0.0060    5.6080 oh        1 MOL     -0.874522
    177 H81         0.6170    0.7330    5.7460 ho        1 MOL      0.413824
    178 H82        -0.4070   -0.1190    6.4640 ho        1 MOL      0.413824
    179 O27         1.6480   -0.2330    0.9060 oh        1 MOL     -0.874522
    180 H83         2.5630   -0.4730    1.0940 ho        1 MOL      0.413824
    181 H84         1.6760    0.0880    0.0040 ho        1 MOL      0.413824
@<TRIPOS>BOND
     1    1    2 1   
     2    1    4 1   
     3    1    5 1   
     4    1    6 1   
     5    2    3 2   
     6    2    7 1   
     7    7    8 1   
     8    7   15 1   
     9    8    9 1   
    10    8   11 1   
    11    8   16 1   
    12    9   10 2   
    13    9   19 1   
    14   11   12 1   
    15   11   17 1   
    16   11   18 1   
    17   12   13 1   
    18   12   14 1   
    19   19   20 1   
    20   19   24 1   
    21   20   21 1   
    22   20   23 1   
    23   20   25 1   
    24   21   22 2   
    25   21   29 1   
    26   23   26 1   
    27   23   27 1   
    28   23   28 1   
    29   29   30 1   
    30   29   37 1   
    31   30   31 1   
    32   30   33 1   
    33   30   38 1   
    34   31   32 2   
    35   31   41 1   
    36   33   34 1   
    37   33   39 1   
    38   33   40 1   
    39   34   35 1   
    40   34   36 1   
    41   41   42 1   
    42   41   45 1   
    43   42   43 1   
    44   42   46 1   
    45   42   47 1   
    46   43   44 2   
    47   43   48 1   
    48   48   49 1   
    49   48   56 1   
    50   49   50 1   
    51   49   52 1   
    52   49   57 1   
    53   50   51 2   
    54   50   62 1   
    55   52   53 1   
    56   52   58 1   
    57   52   59 1   
    58   53   54 1   
    59   53   55 2   
    60   54   60 1   
    61   54   61 1   
    62   62   63 1   
    63   62   66 1   
    64   63   64 1   
    65   63   67 1   
    66   63   68 1   
    67   64   65 2   
    68   64   69 1   
    69   69   70 1   
    70   69   76 1   
    71   70   71 1   
    72   70   73 1   
    73   70   77 1   
    74   71   72 2   
    75   71   83 1   
    76   73   74 1   
    77   73   75 1   
    78   73   78 1   
    79   74   80 1   
    80   74   81 1   
    81   74   82 1   
    82   75   79 1   
    83   83   84 1   
    84   83   91 1   
    85   84   85 1   
    86   84   87 1   
    87   84   92 1   
    88   85   86 2   
    89   85  102 1   
    90   87   88 1   
    91   87   89 1   
    92   87   93 1   
    93   88   90 1   
    94   88   94 1   
    95   88   95 1   
    96   89   96 1   
    97   89   97 1   
    98   89   98 1   
    99   90   99 1   
   100   90  100 1   
   101   90  101 1   
   102  102  103 1   
   103  102  110 1   
   104  103  104 1   
   105  103  106 1   
   106  103  111 1   
   107  104  105 2   
   108  104  114 1   
   109  106  107 1   
   110  106  112 1   
   111  106  113 1   
   112  107  108 1   
   113  107  109 1   
   114  114  115 1   
   115  114  125 1   
   116  115  116 1   
   117  115  118 1   
   118  115  126 1   
   119  116  117 2   
   120  116  134 1   
   121  118  119 1   
   122  118  127 1   
   123  118  128 1   
   124  119  120 ar  
   125  119  121 ar  
   126  120  122 ar  
   127  120  129 1   
   128  121  123 ar  
   129  121  130 1   
   130  122  124 ar  
   131  122  131 1   
   132  123  124 ar  
   133  123  132 1   
   134  124  133 1   
   135  134  135 1   
   136  134  140 1   
   137  135  136 1   
   138  135  138 1   
   139  135  141 1   
   140  136  137 2   
   141  136  148 1   
   142  138  139 1   
   143  138  142 1   
   144  138  143 1   
   145  139  140 1   
   146  139  144 1   
   147  139  145 1   
   148  140  146 1   
   149  140  147 1   
   150  148  149 1   
   151  148  157 1   
   152  149  150 1   
   153  149  152 1   
   154  149  158 1   
   155  150  151 2   
   156  150  163 1   
   157  152  153 1   
   158  152  159 1   
   159  152  160 1   
   160  153  154 1   
   161  153  161 1   
   162  153  162 1   
   163  154  155 1   
   164  154  156 1   
   165  163  164 1   
   166  163  168 1   
   167  164  165 1   
   168  164  166 1   
   169  164  167 1   
   170  170  171 1   
   171  170  172 1   
   172  173  174 1   
   173  173  175 1   
   174  176  177 1   
   175  176  178 1   
   176  179  180 1   
   177  179  181 1   
@<TRIPOS>SUBSTRUCTURE
     1 MOL         1 TEMP              0 ****  ****    0 ROOT
