@<TRIPOS>MOLECULE
MOL
  192   187     1     0     0
SMALL
resp


@<TRIPOS>ATOM
      1 C1        -11.1800   -0.4770   -1.6280 c3        1 MOL     -0.529301
      2 C2         -9.7130   -0.7540   -1.2780 c         1 MOL      0.756976
      3 O1         -8.8910   -1.0300   -2.1450 o         1 MOL     -0.596821
      4 H1        -11.5900    0.2470   -0.9230 hc        1 MOL      0.142020
      5 H2        -11.2440   -0.0750   -2.6390 hc        1 MOL      0.142020
      6 H3        -11.7500   -1.4040   -1.5680 hc        1 MOL      0.142020
      7 N1         -9.4160   -0.7360    0.0540 n         1 MOL     -0.719950
      8 C3         -8.0880   -0.7240    0.5900 c3        1 MOL      0.554764
      9 C4         -7.5140   -1.9770    1.1660 c         1 MOL      0.124894
     10 O2         -8.0740   -2.6200    2.0470 o         1 MOL     -0.469701
     11 C5         -7.7910    0.3790    1.5710 c3        1 MOL     -0.284433
     12 C6         -8.5300    1.7020    1.2500 c         1 MOL      0.726398
     13 O3         -9.5020    2.0530    1.9440 o         1 MOL     -0.675199
     14 O4         -8.2570    2.2810    0.2160 o         1 MOL     -0.675199
     15 H4        -10.1430   -0.4650    0.7010 hn        1 MOL      0.350262
     16 H5         -7.3730   -0.5130   -0.1910 h1        1 MOL     -0.092011
     17 H6         -6.7120    0.5010    1.6390 hc        1 MOL      0.051771
     18 H7         -8.1320    0.0680    2.5550 hc        1 MOL      0.051771
     19 N2         -6.3830   -2.4400    0.5910 n         1 MOL      0.117749
     20 C7         -5.9020   -3.8040    0.5310 c3        1 MOL      0.055233
     21 C8         -4.5090   -3.8750    1.1400 c         1 MOL      0.420335
     22 O5         -4.3280   -4.6150    2.1110 o         1 MOL     -0.529213
     23 C9         -5.8760   -4.4280   -0.8870 c3        1 MOL     -0.210355
     24 C10        -7.3020   -4.4750   -1.3700 c3        1 MOL     -0.025075
     25 C11        -7.3900   -4.9770   -2.8390 c3        1 MOL     -0.111443
     26 C12        -8.9060   -4.9860   -3.1710 c3        1 MOL      0.230856
     27 N3         -9.2550   -5.9340   -4.2270 n4        1 MOL     -0.247547
     28 H8         -6.0570   -1.9260   -0.2090 hn        1 MOL      0.142238
     29 H9         -6.3850   -4.3960    1.3080 h1        1 MOL      0.058351
     30 H10        -5.4500   -5.4240   -0.8430 hc        1 MOL      0.078049
     31 H11        -5.2910   -3.9210   -1.6650 hc        1 MOL      0.078049
     32 H12        -7.6560   -3.4390   -1.3180 hc        1 MOL      0.035187
     33 H13        -7.8980   -5.1720   -0.7720 hc        1 MOL      0.035187
     34 H14        -7.0580   -6.0080   -2.7760 hc        1 MOL      0.049642
     35 H15        -6.8320   -4.4060   -3.5820 hc        1 MOL      0.049642
     36 H16        -9.2460   -3.9900   -3.4150 hx        1 MOL      0.009346
     37 H17        -9.4260   -5.3210   -2.2720 hx        1 MOL      0.009346
     38 H18       -10.1770   -5.6800   -4.5650 hn        1 MOL      0.250130
     39 H19        -8.6440   -5.8830   -5.0250 hn        1 MOL      0.250130
     40 H20        -9.3790   -6.8880   -3.9330 hn        1 MOL      0.250130
     41 N4         -3.5590   -3.0200    0.8290 n         1 MOL     -0.398301
     42 C13        -3.6160   -1.9550   -0.2370 c3        1 MOL     -0.000410
     43 C14        -3.9450   -0.6090    0.4220 c         1 MOL      0.063155
     44 O6         -4.0450   -0.5000    1.6240 o         1 MOL     -0.343988
     45 C15        -2.3790   -1.9410   -1.0940 c3        1 MOL     -0.102884
     46 C16        -1.0650   -2.2070   -0.3370 c         1 MOL      0.729282
     47 O7         -0.8290   -1.7360    0.7630 o         1 MOL     -0.709955
     48 O8         -0.1860   -2.8400   -0.8970 o         1 MOL     -0.709955
     49 H21        -2.6850   -3.1410    1.3240 hn        1 MOL      0.355475
     50 H22        -4.4800   -2.1400   -0.8750 h1        1 MOL      0.072965
     51 H23        -2.4070   -1.0250   -1.6890 hc        1 MOL      0.030360
     52 H24        -2.4270   -2.7040   -1.8750 hc        1 MOL      0.030360
     53 N5         -4.2210    0.4420   -0.3920 n         1 MOL     -0.090445
     54 C17        -4.2910    1.7980    0.0020 c3        1 MOL     -0.340217
     55 C18        -3.0160    2.3380    0.7550 c         1 MOL      0.617707
     56 O9         -1.9090    1.7620    0.7290 o         1 MOL     -0.507745
     57 H25        -4.3240    0.3280   -1.3810 hn        1 MOL      0.250625
     58 H26        -5.1800    1.9680    0.6200 h1        1 MOL      0.134140
     59 H27        -4.2960    2.3220   -0.9500 h1        1 MOL      0.134140
     60 N6         -3.2010    3.4490    1.5050 n         1 MOL     -0.518723
     61 C19        -2.1620    4.3830    1.9650 c3        1 MOL      0.320735
     62 C20        -2.5100    5.8660    1.6690 c         1 MOL      0.312025
     63 O10        -3.6910    6.1890    1.5480 o         1 MOL     -0.485225
     64 C21        -1.8720    4.1590    3.4270 c3        1 MOL     -0.095897
     65 C22        -1.4960    2.7530    3.7370 c         1 MOL      0.592383
     66 O11        -0.3970    2.2550    3.3540 o         1 MOL     -0.658129
     67 O12        -2.2850    2.0240    4.3970 o         1 MOL     -0.658129
     68 H28        -4.1410    3.7960    1.6430 hn        1 MOL      0.323303
     69 H29        -1.2420    4.1600    1.4140 h1        1 MOL      0.007709
     70 H30        -2.7060    4.4470    4.0600 hc        1 MOL      0.024423
     71 H31        -1.0510    4.8320    3.6450 hc        1 MOL      0.024423
     72 N7         -1.5590    6.8450    1.6940 n         1 MOL     -0.272827
     73 C23        -0.1190    6.8300    1.8420 c3        1 MOL     -0.232604
     74 C24         0.5880    6.2800    0.5920 c         1 MOL      0.574907
     75 O13         0.3560    6.5170   -0.6220 o         1 MOL     -0.501219
     76 H32        -1.9950    7.7610    1.6950 hn        1 MOL      0.288009
     77 H33         0.2170    6.3300    2.7480 h1        1 MOL      0.115688
     78 H34         0.2110    7.8680    1.8640 h1        1 MOL      0.115688
     79 N8          1.6700    5.5790    0.9080 n         1 MOL     -0.474949
     80 C25         2.3730    4.7250   -0.0380 c3        1 MOL      0.036811
     81 C26         1.4070    3.5880   -0.4780 c         1 MOL      0.390852
     82 O14         0.7740    2.7740    0.2550 o         1 MOL     -0.693285
     83 C27         3.6070    4.0750    0.5530 c3        1 MOL      0.396029
     84 C28         4.7190    5.1210    0.6650 c3        1 MOL     -0.398200
     85 O15         4.1350    2.9070   -0.1280 oh        1 MOL     -0.631705
     86 H35         1.8310    5.4200    1.8970 hn        1 MOL      0.274768
     87 H36         2.5030    5.3660   -0.9090 h1        1 MOL      0.098426
     88 H37         3.4450    3.7910    1.5990 h1        1 MOL      0.032567
     89 H38         4.9320    2.6840    0.3700 ho        1 MOL      0.412057
     90 H39         4.5540    5.6240    1.6150 hc        1 MOL      0.104446
     91 H40         5.6750    4.5990    0.7770 hc        1 MOL      0.104446
     92 H41         4.6490    5.8480   -0.1380 hc        1 MOL      0.104446
     93 N9          1.3340    3.5670   -1.8090 n         1 MOL     -0.247021
     94 C29         0.4690    2.5510   -2.5630 c3        1 MOL      0.015561
     95 C30         0.8310    1.0930   -2.1860 c         1 MOL      0.586183
     96 O16         0.3740    0.4840   -1.2260 o         1 MOL     -0.572516
     97 C31        -1.0270    2.8390   -2.3680 c3        1 MOL      0.102792
     98 C32        -1.5550    4.2850   -2.3480 c3        1 MOL     -0.073713
     99 C33        -1.8390    2.0360   -3.3130 c3        1 MOL     -0.287220
    100 C34        -1.3670    5.2190   -3.4910 c3        1 MOL     -0.156843
    101 H42         1.9230    4.1620   -2.3670 hn        1 MOL      0.234785
    102 H43         0.7050    2.7070   -3.6120 h1        1 MOL      0.042166
    103 H44        -1.2750    2.3970   -1.3990 hc        1 MOL      0.026914
    104 H45        -1.2870    4.7970   -1.4200 hc        1 MOL      0.065970
    105 H46        -2.6290    4.1970   -2.2720 hc        1 MOL      0.065970
    106 H47        -2.9050    1.9530   -3.1170 hc        1 MOL      0.073543
    107 H48        -1.7570    2.4120   -4.3360 hc        1 MOL      0.073543
    108 H49        -1.4670    1.0250   -3.4570 hc        1 MOL      0.073543
    109 H50        -1.8970    6.1680   -3.3510 hc        1 MOL      0.037261
    110 H51        -0.2990    5.4830   -3.5080 hc        1 MOL      0.037261
    111 H52        -1.6260    4.6890   -4.4080 hc        1 MOL      0.037261
    112 N10         1.7410    0.4690   -2.9540 n         1 MOL     -0.433668
    113 C35         2.2880   -0.9190   -2.8190 c3        1 MOL     -0.141264
    114 C36         3.8310   -0.9230   -2.9380 c         1 MOL      0.671509
    115 O17         4.3730   -1.9980   -3.1140 o         1 MOL     -0.607668
    116 C37         1.5140   -1.8610   -3.8060 c3        1 MOL      0.483004
    117 C38         1.4550   -1.3930   -5.2830 c3        1 MOL     -0.402307
    118 O18         0.1920   -1.9940   -3.3420 oh        1 MOL     -0.623179
    119 H53         2.1840    1.0830   -3.6300 hn        1 MOL      0.218638
    120 H54         2.0590   -1.2080   -1.7940 h1        1 MOL      0.109020
    121 H55         1.9040   -2.8780   -3.7280 h1        1 MOL     -0.019863
    122 H56         0.1790   -2.1670   -2.4050 ho        1 MOL      0.393434
    123 H57         0.6870   -0.6270   -5.4090 hc        1 MOL      0.098340
    124 H58         2.4530   -1.0640   -5.5680 hc        1 MOL      0.098340
    125 H59         1.1160   -2.2170   -5.9040 hc        1 MOL      0.098340
    126 N11         4.5950    0.1580   -2.7610 n         1 MOL     -0.388556
    127 C39         6.0680    0.2070   -3.0500 c3        1 MOL     -0.127510
    128 C40         6.8410   -0.3710   -1.8680 c         1 MOL      0.698224
    129 O19         7.4790    0.3180   -1.1310 o         1 MOL     -0.554609
    130 C41         6.5560    1.6350   -3.4890 c3        1 MOL      0.579524
    131 C42         8.0020    1.7150   -3.9180 c3        1 MOL     -0.452019
    132 O20         5.8220    2.2100   -4.5440 oh        1 MOL     -0.632156
    133 H60         4.1580    1.0060   -2.4360 hn        1 MOL      0.199753
    134 H61         6.3840   -0.4380   -3.8770 h1        1 MOL      0.091660
    135 H62         6.4310    2.2490   -2.5870 h1        1 MOL     -0.085924
    136 H63         5.2480    2.8780   -4.1630 ho        1 MOL      0.377812
    137 H64         8.2030    2.7800   -4.0540 hc        1 MOL      0.113160
    138 H65         8.6630    1.4360   -3.0990 hc        1 MOL      0.113160
    139 H66         8.1980    1.1240   -4.8130 hc        1 MOL      0.113160
    140 N12         6.7670   -1.7000   -1.7350 n         1 MOL     -0.806664
    141 C43         6.7420   -2.3960   -0.3940 c3        1 MOL      0.541792
    142 C44         5.6600   -1.8600    0.5240 c         1 MOL      0.614852
    143 O21         5.2080   -0.7810    0.4410 o         1 MOL     -0.561856
    144 C45         8.1320   -2.3880    0.2700 c3        1 MOL     -0.273126
    145 C46         9.3820   -2.6720   -0.6040 c3        1 MOL     -0.002858
    146 C47        10.6760   -2.4480    0.2470 c3        1 MOL     -0.026692
    147 C48        11.9800   -2.0170   -0.6130 c3        1 MOL      0.057899
    148 N13        13.1690   -1.8990    0.2990 n4        1 MOL     -0.300811
    149 H67         6.1410   -2.1190   -2.4100 hn        1 MOL      0.368509
    150 H68         6.5330   -3.4460   -0.5490 h1        1 MOL     -0.020172
    151 H69         8.2020   -3.0830    1.1100 hc        1 MOL      0.053119
    152 H70         8.3120   -1.4200    0.7400 hc        1 MOL      0.053119
    153 H71         9.3040   -1.9370   -1.4140 hc        1 MOL      0.032136
    154 H72         9.2780   -3.6620   -1.0390 hc        1 MOL      0.032136
    155 H73        10.9500   -3.3680    0.7720 hc        1 MOL      0.053083
    156 H74        10.5500   -1.6110    0.9260 hc        1 MOL      0.053083
    157 H75        11.7460   -1.1020   -1.1510 hx        1 MOL      0.062686
    158 H76        12.2220   -2.8210   -1.3110 hx        1 MOL      0.062686
    159 H77        13.0590   -1.2720    1.0750 hn        1 MOL      0.267250
    160 H78        13.4570   -2.8250    0.5640 hn        1 MOL      0.267250
    161 H79        13.9090   -1.4950   -0.2620 hn        1 MOL      0.267250
    162 N14         5.1650   -2.6800    1.4120 n         1 MOL     -0.958144
    163 C49         4.0890   -2.4010    2.3440 c3        1 MOL      0.761557
    164 C50         2.7140   -2.3220    1.6250 c         1 MOL      0.223169
    165 O22         1.9710   -1.5250    2.1110 o         1 MOL     -0.551419
    166 C51         4.0410   -3.6270    3.2540 c3        1 MOL     -0.055013
    167 C52         5.0290   -3.4350    4.4000 c3        1 MOL     -0.191524
    168 C53         5.1560   -4.6470    5.3610 c         1 MOL      0.722125
    169 O23         4.1180   -5.3030    5.7050 o         1 MOL     -0.663728
    170 O24         6.3460   -4.9100    5.6790 o         1 MOL     -0.663728
    171 H80         5.6600   -3.5320    1.6220 hn        1 MOL      0.388952
    172 H81         4.1430   -1.5240    2.9870 h1        1 MOL     -0.080399
    173 H82         4.2540   -4.5480    2.7170 hc        1 MOL      0.033875
    174 H83         3.0870   -3.6420    3.7790 hc        1 MOL      0.033875
    175 H84         4.8780   -2.5500    5.0270 hc        1 MOL      0.001851
    176 H85         5.9780   -3.4810    3.8790 hc        1 MOL      0.001851
    177 N15         2.2900   -3.1290    0.6150 n         1 MOL     -0.308231
    178 C54         2.8830   -4.4670    0.2670 c3        1 MOL     -0.018422
    179 H86         3.6410   -4.3380   -0.5060 h1        1 MOL      0.035630
    180 H87         3.3410   -4.9040    1.1540 h1        1 MOL      0.035630
    181 H88         2.0980   -5.1290   -0.1010 h1        1 MOL      0.035630
    182 H89         1.3530   -3.0020    0.2730 hn        1 MOL      0.360239
    183 Ca1         0.3090    0.4280    1.5560 Ca        1 MOL      1.840411
    184 O25        -1.6450   -0.2350    3.2320 oh        1 MOL     -0.909078
    185 H90        -1.5710    0.4430    3.9120 ho        1 MOL      0.430129
    186 H91        -2.5060   -0.0830    2.8400 ho        1 MOL      0.430129
    187 O26         2.1470    0.8820    3.5850 oh        1 MOL     -0.909078
    188 H92         3.0830    1.0650    3.6760 ho        1 MOL      0.430129
    189 H93         1.8050    0.9080    4.4750 ho        1 MOL      0.430129
    190 O27         2.9310    0.7050    0.5550 oh        1 MOL     -0.909078
    191 H94         3.4100    1.4080    0.1040 ho        1 MOL      0.430129
    192 H95         3.6030    0.0710    0.8000 ho        1 MOL      0.430129
@<TRIPOS>BOND
     1    1    2 1   
     2    1    4 1   
     3    1    5 1   
     4    1    6 1   
     5    2    3 2   
     6    2    7 1   
     7    7    8 1   
     8    7   15 1   
     9    8    9 1   
    10    8   11 1   
    11    8   16 1   
    12    9   10 2   
    13    9   19 1   
    14   11   12 1   
    15   11   17 1   
    16   11   18 1   
    17   12   13 1   
    18   12   14 1   
    19   19   20 1   
    20   19   28 1   
    21   20   21 1   
    22   20   23 1   
    23   20   29 1   
    24   21   22 2   
    25   21   41 1   
    26   23   24 1   
    27   23   30 1   
    28   23   31 1   
    29   24   25 1   
    30   24   32 1   
    31   24   33 1   
    32   25   26 1   
    33   25   34 1   
    34   25   35 1   
    35   26   27 1   
    36   26   36 1   
    37   26   37 1   
    38   27   38 1   
    39   27   39 1   
    40   27   40 1   
    41   41   42 1   
    42   41   49 1   
    43   42   43 1   
    44   42   45 1   
    45   42   50 1   
    46   43   44 2   
    47   43   53 1   
    48   45   46 1   
    49   45   51 1   
    50   45   52 1   
    51   46   47 1   
    52   46   48 1   
    53   53   54 1   
    54   53   57 1   
    55   54   55 1   
    56   54   58 1   
    57   54   59 1   
    58   55   56 2   
    59   55   60 1   
    60   60   61 1   
    61   60   68 1   
    62   61   62 1   
    63   61   64 1   
    64   61   69 1   
    65   62   63 2   
    66   62   72 1   
    67   64   65 1   
    68   64   70 1   
    69   64   71 1   
    70   65   66 1   
    71   65   67 1   
    72   72   73 1   
    73   72   76 1   
    74   73   74 1   
    75   73   77 1   
    76   73   78 1   
    77   74   75 2   
    78   74   79 1   
    79   79   80 1   
    80   79   86 1   
    81   80   81 1   
    82   80   83 1   
    83   80   87 1   
    84   81   82 2   
    85   81   93 1   
    86   83   84 1   
    87   83   85 1   
    88   83   88 1   
    89   84   90 1   
    90   84   91 1   
    91   84   92 1   
    92   85   89 1   
    93   93   94 1   
    94   93  101 1   
    95   94   95 1   
    96   94   97 1   
    97   94  102 1   
    98   95   96 2   
    99   95  112 1   
   100   97   98 1   
   101   97   99 1   
   102   97  103 1   
   103   98  100 1   
   104   98  104 1   
   105   98  105 1   
   106   99  106 1   
   107   99  107 1   
   108   99  108 1   
   109  100  109 1   
   110  100  110 1   
   111  100  111 1   
   112  112  113 1   
   113  112  119 1   
   114  113  114 1   
   115  113  116 1   
   116  113  120 1   
   117  114  115 2   
   118  114  126 1   
   119  116  117 1   
   120  116  118 1   
   121  116  121 1   
   122  117  123 1   
   123  117  124 1   
   124  117  125 1   
   125  118  122 1   
   126  126  127 1   
   127  126  133 1   
   128  127  128 1   
   129  127  130 1   
   130  127  134 1   
   131  128  129 2   
   132  128  140 1   
   133  130  131 1   
   134  130  132 1   
   135  130  135 1   
   136  131  137 1   
   137  131  138 1   
   138  131  139 1   
   139  132  136 1   
   140  140  141 1   
   141  140  149 1   
   142  141  142 1   
   143  141  144 1   
   144  141  150 1   
   145  142  143 2   
   146  142  162 1   
   147  144  145 1   
   148  144  151 1   
   149  144  152 1   
   150  145  146 1   
   151  145  153 1   
   152  145  154 1   
   153  146  147 1   
   154  146  155 1   
   155  146  156 1   
   156  147  148 1   
   157  147  157 1   
   158  147  158 1   
   159  148  159 1   
   160  148  160 1   
   161  148  161 1   
   162  162  163 1   
   163  162  171 1   
   164  163  164 1   
   165  163  166 1   
   166  163  172 1   
   167  164  165 2   
   168  164  177 1   
   169  166  167 1   
   170  166  173 1   
   171  166  174 1   
   172  167  168 1   
   173  167  175 1   
   174  167  176 1   
   175  168  169 1   
   176  168  170 1   
   177  177  178 1   
   178  177  182 1   
   179  178  179 1   
   180  178  180 1   
   181  178  181 1   
   182  184  185 1   
   183  184  186 1   
   184  187  188 1   
   185  187  189 1   
   186  190  191 1   
   187  190  192 1   
@<TRIPOS>SUBSTRUCTURE
     1 MOL         1 TEMP              0 ****  ****    0 ROOT
