@<TRIPOS>MOLECULE
MOL
  189   185     1     0     0
SMALL
resp


@<TRIPOS>ATOM
      1 C1          3.8030    4.1470   -3.4070 c3        1 MOL     -0.304159
      2 C2          4.8030    3.2590   -2.5890 c         1 MOL      0.906961
      3 O1          4.6660    2.9720   -1.3970 o         1 MOL     -0.731057
      4 H1          4.1650    5.1750   -3.4280 hc        1 MOL      0.060852
      5 H2          3.7300    3.7670   -4.4260 hc        1 MOL      0.060852
      6 H3          2.8210    4.1170   -2.9360 hc        1 MOL      0.060852
      7 N1          5.7360    2.7160   -3.3430 n         1 MOL     -0.711680
      8 C3          6.5770    1.5600   -2.9360 c3        1 MOL      0.142317
      9 C4          5.7210    0.3430   -2.4910 c         1 MOL      0.327714
     10 O2          5.4550    0.1480   -1.2600 o         1 MOL     -0.532310
     11 C5          7.7890    1.9270   -1.9750 c3        1 MOL     -0.117498
     12 C6          7.5710    3.0870   -0.9570 c         1 MOL      0.772133
     13 O3          7.1320    2.7570    0.1710 o         1 MOL     -0.743840
     14 O4          7.9880    4.2180   -1.2140 o         1 MOL     -0.743840
     15 H4          5.8460    3.1020   -4.2650 hn        1 MOL      0.345271
     16 H5          7.0930    1.2730   -3.8520 h1        1 MOL      0.026475
     17 H6          8.6840    2.2040   -2.5360 hc        1 MOL      0.026365
     18 H7          8.0380    0.9980   -1.4560 hc        1 MOL      0.026365
     19 N2          5.3430   -0.5550   -3.3730 n         1 MOL     -0.299219
     20 C7          4.7360   -1.8490   -3.1000 c3        1 MOL     -0.076968
     21 C8          5.5170   -2.8950   -2.3110 c         1 MOL      0.340462
     22 O5          5.8000   -3.9800   -2.7720 o         1 MOL     -0.551078
     23 C9          3.2890   -1.7580   -2.5250 c3        1 MOL      0.387993
     24 C10         2.5530   -3.0900   -2.7410 c3        1 MOL     -0.223768
     25 C11         2.5060   -0.5920   -3.1310 c3        1 MOL     -0.491946
     26 C12         1.9050   -3.3950   -4.1460 c3        1 MOL     -0.047841
     27 H8          5.5910   -0.4280   -4.3430 hn        1 MOL      0.260385
     28 H9          4.5750   -2.1660   -4.1290 h1        1 MOL      0.066940
     29 H10         3.2590   -1.6200   -1.4480 hc        1 MOL     -0.079873
     30 H11         1.7940   -3.0300   -1.9600 hc        1 MOL      0.057663
     31 H12         3.1990   -3.8990   -2.4270 hc        1 MOL      0.057663
     32 H13         1.5170   -0.6160   -2.6700 hc        1 MOL      0.113636
     33 H14         2.9620    0.3830   -2.9460 hc        1 MOL      0.113636
     34 H15         2.4190   -0.6680   -4.2220 hc        1 MOL      0.113636
     35 H16         1.1130   -2.6400   -4.2070 hc        1 MOL      0.013924
     36 H17         2.6250   -3.2280   -4.9440 hc        1 MOL      0.013924
     37 H18         1.4960   -4.3820   -4.3170 hc        1 MOL      0.013924
     38 N3          5.9550   -2.5760   -1.1140 n         1 MOL      0.036379
     39 C13         6.6010   -3.4630   -0.1330 c3        1 MOL     -0.006846
     40 C14         6.0030   -4.8620    0.0570 c         1 MOL      0.632876
     41 O6          6.7450   -5.8180   -0.1820 o         1 MOL     -0.584865
     42 C15         6.9270   -2.7300    1.1550 c3        1 MOL     -0.028552
     43 C16         7.2810   -1.2800    1.0350 c         1 MOL      0.694503
     44 O7          6.5640   -0.3820    1.5520 o         1 MOL     -0.708452
     45 O8          8.3440   -0.9390    0.5410 o         1 MOL     -0.708452
     46 H19         5.8100   -1.6080   -0.8650 hn        1 MOL      0.140685
     47 H20         7.5580   -3.5450   -0.6480 h1        1 MOL      0.000019
     48 H21         7.7190   -3.2950    1.6300 hc        1 MOL     -0.004795
     49 H22         6.0150   -2.7220    1.7580 hc        1 MOL     -0.004795
     50 N4          4.6830   -5.0470    0.3380 n         1 MOL     -0.589795
     51 C17         3.7210   -4.1150    0.9160 c3        1 MOL      0.141490
     52 C18         3.8680   -4.0570    2.4190 c         1 MOL      0.479796
     53 O9          4.4630   -4.8940    3.0550 o         1 MOL     -0.553488
     54 H23         4.4060   -6.0140    0.2180 hn        1 MOL      0.300694
     55 H24         2.6800   -4.4310    0.7790 h1        1 MOL      0.044686
     56 H25         3.9070   -3.1660    0.4190 h1        1 MOL      0.044686
     57 N5          3.4430   -2.9650    3.1240 n         1 MOL     -0.229706
     58 C19         2.4400   -2.0070    2.8850 c3        1 MOL     -0.211024
     59 C20         2.4720   -1.1210    1.6270 c         1 MOL      0.372249
     60 O10         3.5190   -0.5760    1.2640 o         1 MOL     -0.518303
     61 C21         2.2360   -1.1310    4.0960 c3        1 MOL     -0.491938
     62 C22         2.0970   -1.8760    5.4460 c         1 MOL      0.790076
     63 O11         3.0310   -1.8350    6.2540 o         1 MOL     -0.717308
     64 O12         0.9740   -2.3490    5.7280 o         1 MOL     -0.717308
     65 H26         3.5800   -2.9900    4.1200 hn        1 MOL      0.252821
     66 H27         1.5100   -2.5780    2.9550 h1        1 MOL      0.114190
     67 H28         1.3010   -0.5590    4.0600 hc        1 MOL      0.163252
     68 H29         3.0160   -0.3640    4.1280 hc        1 MOL      0.163252
     69 N6          1.3470   -0.8290    0.9070 n         1 MOL     -0.069590
     70 C23        -0.0570   -1.2160    1.0890 c3        1 MOL     -0.302542
     71 C24        -0.5580   -2.5060    0.3680 c         1 MOL      0.597575
     72 O13         0.2460   -3.3460    0.1790 o         1 MOL     -0.479534
     73 H30         1.4500   -0.1250    0.1760 hn        1 MOL      0.233298
     74 H31        -0.7040   -0.4670    0.6310 h1        1 MOL      0.129896
     75 H32        -0.3430   -1.2790    2.1380 h1        1 MOL      0.129896
     76 N7         -1.8760   -2.7860    0.3580 n         1 MOL     -0.441331
     77 C25        -2.4570   -4.0140   -0.2540 c3        1 MOL      0.119333
     78 C26        -3.1240   -3.8100   -1.6340 c         1 MOL      0.379523
     79 O14        -3.1640   -4.6810   -2.5550 o         1 MOL     -0.517360
     80 C27        -3.2890   -4.8700    0.6870 c3        1 MOL      0.008806
     81 C28        -4.3460   -4.0460    1.4220 c3        1 MOL     -0.746513
     82 C29        -5.3790   -3.3950    0.4770 c         1 MOL      0.605183
     83 N8         -6.1650   -4.1250   -0.2280 n         1 MOL     -0.762055
     84 O15        -5.5040   -2.1550    0.4460 o         1 MOL     -0.508997
     85 H33        -2.4550   -2.0050    0.6230 hn        1 MOL      0.270837
     86 H34        -1.6480   -4.7190   -0.4640 h1        1 MOL      0.077964
     87 H35        -2.5830   -5.0520    1.5040 hc        1 MOL      0.057322
     88 H36        -3.6770   -5.7990    0.2750 hc        1 MOL      0.057322
     89 H37        -3.7930   -3.3340    2.0260 hc        1 MOL      0.267174
     90 H38        -4.8760   -4.7910    2.0170 hc        1 MOL      0.267174
     91 H39        -6.0230   -5.1300   -0.2780 hn        1 MOL      0.372208
     92 H40        -7.0330   -3.7410   -0.5610 hn        1 MOL      0.372208
     93 N9         -3.5790   -2.5570   -1.8960 n         1 MOL     -0.268252
     94 C30        -4.0270   -2.1030   -3.2480 c3        1 MOL     -0.149110
     95 C31        -5.3770   -1.4570   -3.3350 c         1 MOL      0.382465
     96 O16        -5.9210   -1.3870   -4.4590 o         1 MOL     -0.577358
     97 C32        -2.9620   -1.1660   -3.9280 c3        1 MOL      0.130755
     98 C33        -1.5470   -1.7930   -4.1240 c3        1 MOL     -0.147298
     99 C34        -2.7620    0.1420   -3.0870 c3        1 MOL     -0.147298
    100 H41        -3.6060   -1.8770   -1.1610 hn        1 MOL      0.216117
    101 H42        -4.0350   -2.9740   -3.9170 h1        1 MOL      0.146987
    102 H43        -3.2650   -0.8410   -4.9280 hc        1 MOL      0.034208
    103 H44        -1.6680   -2.6870   -4.7520 hc        1 MOL      0.032475
    104 H45        -0.8590   -1.0860   -4.6090 hc        1 MOL      0.032475
    105 H46        -1.2110   -2.1190   -3.1490 hc        1 MOL      0.032475
    106 H47        -3.7080    0.5950   -2.8280 hc        1 MOL      0.032475
    107 H48        -2.2950   -0.0720   -2.1280 hc        1 MOL      0.032475
    108 H49        -2.1470    0.8240   -3.6840 hc        1 MOL      0.032475
    109 N10        -5.9520   -1.0420   -2.2460 n         1 MOL      0.050739
    110 C35        -7.2000   -0.3120   -2.2080 c3        1 MOL     -0.257091
    111 C36        -7.1380    1.0110   -1.3940 c         1 MOL      0.643869
    112 O17        -8.1360    1.7110   -1.4460 o         1 MOL     -0.542432
    113 C37        -8.2960   -1.1850   -1.5360 c3        1 MOL      0.009802
    114 C38        -8.4930   -2.5410   -2.0510 c         1 MOL      0.621931
    115 N11        -8.6560   -2.8180   -3.3290 n         1 MOL     -0.782815
    116 O18        -8.6400   -3.5320   -1.3060 o         1 MOL     -0.592246
    117 H50        -5.5140   -1.1790   -1.3450 hn        1 MOL      0.146584
    118 H51        -7.5760   -0.0730   -3.2050 h1        1 MOL      0.113178
    119 H52        -9.2570   -0.6850   -1.6230 hc        1 MOL      0.010819
    120 H53        -8.0810   -1.2840   -0.4770 hc        1 MOL      0.010819
    121 H54        -8.4220   -2.1500   -4.0530 hn        1 MOL      0.378167
    122 H55        -8.7840   -3.8020   -3.4840 hn        1 MOL      0.378167
    123 N12        -6.0960    1.2870   -0.5540 n         1 MOL     -0.592074
    124 C39        -6.0290    2.4710    0.3940 c3        1 MOL      0.141217
    125 C40        -4.6290    2.8810    0.7910 c         1 MOL      0.566731
    126 O19        -3.6300    2.2590    0.3940 o         1 MOL     -0.483870
    127 C41        -6.8290    2.1190    1.6630 c3        1 MOL     -0.173039
    128 C42        -6.5420    0.7830    2.3270 ca        1 MOL      0.154210
    129 C43        -7.4880   -0.1940    2.1150 ca        1 MOL     -0.240079
    130 C44        -5.4440    0.5470    3.1820 ca        1 MOL     -0.240079
    131 C45        -7.3650   -1.4480    2.7140 ca        1 MOL     -0.202822
    132 C46        -5.2530   -0.7120    3.7140 ca        1 MOL     -0.202822
    133 C47        -6.1920   -1.7050    3.4880 ca        1 MOL      0.264236
    134 O20        -5.8840   -2.9330    4.0090 oh        1 MOL     -0.440270
    135 H56        -5.3780    0.5850   -0.4760 hn        1 MOL      0.301721
    136 H57        -6.4770    3.3180   -0.1110 h1        1 MOL      0.070679
    137 H58        -7.8900    2.1500    1.4280 hc        1 MOL      0.049003
    138 H59        -6.6700    2.8660    2.4370 hc        1 MOL      0.049003
    139 H60        -8.2410   -0.0250    1.3530 ha        1 MOL      0.180544
    140 H61        -4.7320    1.3570    3.3160 ha        1 MOL      0.180544
    141 H62        -8.1280   -2.1970    2.5580 ha        1 MOL      0.153860
    142 H63        -4.3080   -0.8780    4.2010 ha        1 MOL      0.153860
    143 H64        -6.6240   -3.5480    4.0240 ho        1 MOL      0.316360
    144 N13        -4.4280    4.1040    1.3210 n         1 MOL     -0.611832
    145 C48        -3.0910    4.7380    1.5390 c3        1 MOL      0.049130
    146 C49        -2.2220    5.1450    0.3480 c         1 MOL      0.555189
    147 O21        -1.7940    6.2660    0.2820 o         1 MOL     -0.552942
    148 C50        -2.4160    4.0850    2.7590 c3        1 MOL      0.070659
    149 C51        -3.2260    4.0560    3.9780 c3        1 MOL     -0.229191
    150 C52        -2.4200    3.7580    5.2560 c         1 MOL      0.630636
    151 O22        -1.8000    4.6710    5.8330 o         1 MOL     -0.683289
    152 O23        -2.5920    2.6130    5.7790 o         1 MOL     -0.683289
    153 H65        -5.2210    4.6760    1.5650 hn        1 MOL      0.312421
    154 H66        -3.4330    5.6850    1.9470 h1        1 MOL      0.070404
    155 H67        -1.5630    4.7160    3.0410 hc        1 MOL      0.033025
    156 H68        -2.0560    3.0760    2.5750 hc        1 MOL      0.033025
    157 H69        -3.9750    3.2680    3.8710 hc        1 MOL      0.034345
    158 H70        -3.6340    5.0660    4.0610 hc        1 MOL      0.034345
    159 N14        -1.7880    4.2420   -0.5680 n         1 MOL     -0.516284
    160 C53        -0.6060    4.5120   -1.5060 c3        1 MOL     -0.087404
    161 C54        -1.0670    5.3520   -2.8140 c         1 MOL      0.398675
    162 O24        -0.2400    5.7610   -3.6580 o         1 MOL     -0.520032
    163 C55        -0.0470    3.1670   -1.9230 c3        1 MOL     -0.001505
    164 C56         0.2830    2.2220   -0.7180 c3        1 MOL      0.257178
    165 C57         1.4950    2.5680    0.1760 c         1 MOL      0.590952
    166 O25         1.5430    3.5310    0.9660 o         1 MOL     -0.651343
    167 O26         2.4910    1.7740    0.1060 o         1 MOL     -0.651343
    168 H71        -2.1630    3.3150   -0.6190 hn        1 MOL      0.289937
    169 H72         0.1680    5.0800   -0.9840 h1        1 MOL      0.185204
    170 H73         0.9100    3.4230   -2.3900 hc        1 MOL      0.012702
    171 H74        -0.7760    2.6880   -2.5760 hc        1 MOL      0.012702
    172 H75         0.6550    1.3130   -1.1810 hc        1 MOL     -0.133840
    173 H76        -0.6390    2.0420   -0.1640 hc        1 MOL     -0.133840
    174 N15        -2.3640    5.7290   -2.8930 n         1 MOL     -0.079778
    175 C58        -3.0580    6.4900   -3.8850 c3        1 MOL     -0.362156
    176 H77        -2.6900    7.5170   -3.8780 h1        1 MOL      0.123226
    177 H78        -2.8870    6.0500   -4.8670 h1        1 MOL      0.123226
    178 H79        -4.1260    6.4860   -3.6650 h1        1 MOL      0.123226
    179 H80        -2.9210    5.2710   -2.1920 hn        1 MOL      0.175796
    180 Ca1         4.9520    1.5920    0.9420 Ca        1 MOL      1.765079
    181 O27         4.0930    4.1100    1.5270 oh        1 MOL     -0.819001
    182 H81         4.2190    5.0260    1.2740 ho        1 MOL      0.398804
    183 H82         3.2030    3.9020    1.2460 ho        1 MOL      0.398804
    184 O28         6.3430    2.4070    3.3510 oh        1 MOL     -0.819001
    185 H83         6.6950    2.1360    4.1970 ho        1 MOL      0.398804
    186 H84         6.6920    3.2840    3.2000 ho        1 MOL      0.398804
    187 O29         3.3890    1.8740    3.3050 oh        1 MOL     -0.819001
    188 H85         3.5730    1.6550    4.2080 ho        1 MOL      0.398804
    189 H86         2.4360    2.0060    3.2700 ho        1 MOL      0.398804
@<TRIPOS>BOND
     1    1    2 1   
     2    1    4 1   
     3    1    5 1   
     4    1    6 1   
     5    2    3 2   
     6    2    7 1   
     7    7    8 1   
     8    7   15 1   
     9    8    9 1   
    10    8   11 1   
    11    8   16 1   
    12    9   10 2   
    13    9   19 1   
    14   11   12 1   
    15   11   17 1   
    16   11   18 1   
    17   12   13 1   
    18   12   14 1   
    19   19   20 1   
    20   19   27 1   
    21   20   21 1   
    22   20   23 1   
    23   20   28 1   
    24   21   22 2   
    25   21   38 1   
    26   23   24 1   
    27   23   25 1   
    28   23   29 1   
    29   24   26 1   
    30   24   30 1   
    31   24   31 1   
    32   25   32 1   
    33   25   33 1   
    34   25   34 1   
    35   26   35 1   
    36   26   36 1   
    37   26   37 1   
    38   38   39 1   
    39   38   46 1   
    40   39   40 1   
    41   39   42 1   
    42   39   47 1   
    43   40   41 2   
    44   40   50 1   
    45   42   43 1   
    46   42   48 1   
    47   42   49 1   
    48   43   44 1   
    49   43   45 1   
    50   50   51 1   
    51   50   54 1   
    52   51   52 1   
    53   51   55 1   
    54   51   56 1   
    55   52   53 2   
    56   52   57 1   
    57   57   58 1   
    58   57   65 1   
    59   58   59 1   
    60   58   61 1   
    61   58   66 1   
    62   59   60 2   
    63   59   69 1   
    64   61   62 1   
    65   61   67 1   
    66   61   68 1   
    67   62   63 1   
    68   62   64 1   
    69   69   70 1   
    70   69   73 1   
    71   70   71 1   
    72   70   74 1   
    73   70   75 1   
    74   71   72 2   
    75   71   76 1   
    76   76   77 1   
    77   76   85 1   
    78   77   78 1   
    79   77   80 1   
    80   77   86 1   
    81   78   79 2   
    82   78   93 1   
    83   80   81 1   
    84   80   87 1   
    85   80   88 1   
    86   81   82 1   
    87   81   89 1   
    88   81   90 1   
    89   82   83 1   
    90   82   84 2   
    91   83   91 1   
    92   83   92 1   
    93   93   94 1   
    94   93  100 1   
    95   94   95 1   
    96   94   97 1   
    97   94  101 1   
    98   95   96 2   
    99   95  109 1   
   100   97   98 1   
   101   97   99 1   
   102   97  102 1   
   103   98  103 1   
   104   98  104 1   
   105   98  105 1   
   106   99  106 1   
   107   99  107 1   
   108   99  108 1   
   109  109  110 1   
   110  109  117 1   
   111  110  111 1   
   112  110  113 1   
   113  110  118 1   
   114  111  112 2   
   115  111  123 1   
   116  113  114 1   
   117  113  119 1   
   118  113  120 1   
   119  114  115 1   
   120  114  116 2   
   121  115  121 1   
   122  115  122 1   
   123  123  124 1   
   124  123  135 1   
   125  124  125 1   
   126  124  127 1   
   127  124  136 1   
   128  125  126 2   
   129  125  144 1   
   130  127  128 1   
   131  127  137 1   
   132  127  138 1   
   133  128  129 ar  
   134  128  130 ar  
   135  129  131 ar  
   136  129  139 1   
   137  130  132 ar  
   138  130  140 1   
   139  131  133 ar  
   140  131  141 1   
   141  132  133 ar  
   142  132  142 1   
   143  133  134 1   
   144  134  143 1   
   145  144  145 1   
   146  144  153 1   
   147  145  146 1   
   148  145  148 1   
   149  145  154 1   
   150  146  147 2   
   151  146  159 1   
   152  148  149 1   
   153  148  155 1   
   154  148  156 1   
   155  149  150 1   
   156  149  157 1   
   157  149  158 1   
   158  150  151 1   
   159  150  152 1   
   160  159  160 1   
   161  159  168 1   
   162  160  161 1   
   163  160  163 1   
   164  160  169 1   
   165  161  162 2   
   166  161  174 1   
   167  163  164 1   
   168  163  170 1   
   169  163  171 1   
   170  164  165 1   
   171  164  172 1   
   172  164  173 1   
   173  165  166 1   
   174  165  167 1   
   175  174  175 1   
   176  174  179 1   
   177  175  176 1   
   178  175  177 1   
   179  175  178 1   
   180  181  182 1   
   181  181  183 1   
   182  184  185 1   
   183  184  186 1   
   184  187  188 1   
   185  187  189 1   
@<TRIPOS>SUBSTRUCTURE
     1 MOL         1 TEMP              0 ****  ****    0 ROOT
