@<TRIPOS>MOLECULE
MOL
  195   189     1     0     0
SMALL
resp


@<TRIPOS>ATOM
      1 C1        -11.4280    6.0340    0.5680 c3        1 MOL     -0.224309
      2 C2        -11.0400    4.7700   -0.1840 c         1 MOL      0.616255
      3 O1        -11.5190    3.6350    0.0220 o         1 MOL     -0.577492
      4 H1        -11.9930    5.7660    1.4610 hc        1 MOL      0.058372
      5 H2        -10.5280    6.5750    0.8580 hc        1 MOL      0.058372
      6 H3        -12.0420    6.6660   -0.0730 hc        1 MOL      0.058372
      7 N1        -10.0220    4.9200   -1.0560 n         1 MOL     -0.345204
      8 C3         -9.5120    3.8750   -1.8640 c3        1 MOL     -0.389902
      9 C4         -8.7440    2.8250   -1.0510 c         1 MOL      0.555286
     10 O2         -7.7700    3.0510   -0.3330 o         1 MOL     -0.504317
     11 C5         -8.6870    4.5560   -2.9200 c3        1 MOL     -0.089253
     12 C6         -7.4260    5.4010   -2.4460 c         1 MOL      0.735939
     13 O3         -6.4410    5.4440   -3.2540 o         1 MOL     -0.745960
     14 O4         -7.3570    5.7470   -1.2460 o         1 MOL     -0.745960
     15 H4         -9.7310    5.8470   -1.3020 hn        1 MOL      0.246136
     16 H5        -10.3030    3.3340   -2.3870 h1        1 MOL      0.170249
     17 H6         -9.3750    5.1820   -3.4830 hc        1 MOL      0.093123
     18 H7         -8.2390    3.9030   -3.6750 hc        1 MOL      0.093123
     19 N2         -9.2870    1.6060   -1.1390 n         1 MOL     -0.224992
     20 C7         -8.8770    0.3520   -0.4770 c3        1 MOL     -0.119726
     21 C8         -7.4220    0.0140   -0.7950 c         1 MOL      0.568277
     22 O5         -7.0840    0.0550   -1.9910 o         1 MOL     -0.554431
     23 C9         -9.8280   -0.7660   -0.9520 c3        1 MOL     -0.279998
     24 C10        -9.3530   -2.1090   -0.4020 c3        1 MOL      0.279366
     25 C11       -10.3150   -3.1730   -0.8430 c3        1 MOL     -0.137994
     26 C12        -9.9110   -4.4530   -0.0240 c3        1 MOL      0.069765
     27 N3        -10.9500   -5.5190   -0.2710 n4        1 MOL     -0.281159
     28 H8        -10.0490    1.4950   -1.7800 hn        1 MOL      0.219716
     29 H9         -9.0150    0.5590    0.5850 h1        1 MOL      0.113859
     30 H10        -9.9360   -0.7390   -2.0300 hc        1 MOL      0.110889
     31 H11       -10.8010   -0.4810   -0.5530 hc        1 MOL      0.110889
     32 H12        -9.3960   -2.0560    0.6840 hc        1 MOL     -0.042887
     33 H13        -8.2980   -2.3190   -0.5630 hc        1 MOL     -0.042887
     34 H14       -10.0850   -3.2660   -1.9090 hc        1 MOL      0.046072
     35 H15       -11.3580   -2.8890   -0.6840 hc        1 MOL      0.046072
     36 H16        -9.9630   -4.1490    1.0220 hx        1 MOL      0.081758
     37 H17        -8.9130   -4.8150   -0.2790 hx        1 MOL      0.081758
     38 H18       -11.8640   -5.0820   -0.3440 hn        1 MOL      0.257875
     39 H19       -10.7720   -5.9880   -1.1520 hn        1 MOL      0.257875
     40 H20       -10.9580   -6.1940    0.4810 hn        1 MOL      0.257875
     41 N4         -6.5720   -0.3780    0.1380 n         1 MOL     -0.465962
     42 C13        -5.2190   -0.8630   -0.1020 c3        1 MOL      0.418424
     43 C14        -5.1280   -2.2450    0.5190 c         1 MOL      0.201029
     44 O6         -5.5200   -2.4180    1.6760 o         1 MOL     -0.520775
     45 C15        -4.1680    0.1180    0.4910 c3        1 MOL     -0.023265
     46 C16        -4.7340    1.5170    1.0240 c         1 MOL      0.508373
     47 O7         -4.8730    2.3870    0.1130 o         1 MOL     -0.667255
     48 O8         -5.1790    1.6320    2.1480 o         1 MOL     -0.667255
     49 H21        -6.9000   -0.2600    1.0790 hn        1 MOL      0.291429
     50 H22        -5.0140   -0.8190   -1.1700 h1        1 MOL      0.023568
     51 H23        -3.5160    0.4590   -0.3250 hc        1 MOL      0.011546
     52 H24        -3.5270   -0.3940    1.2050 hc        1 MOL      0.011546
     53 N5         -4.4840   -3.3390   -0.0770 n         1 MOL     -0.207554
     54 C17        -3.6300   -3.3230   -1.2390 c3        1 MOL     -0.309301
     55 C18        -2.7520   -4.5920   -1.3480 c         1 MOL      0.622268
     56 O9         -2.5300   -5.2640   -0.3450 o         1 MOL     -0.550072
     57 H25        -4.5200   -4.2050    0.4280 hn        1 MOL      0.237819
     58 H26        -2.8720   -2.5410   -1.1990 h1        1 MOL      0.108549
     59 H27        -4.2540   -3.2840   -2.1320 h1        1 MOL      0.108549
     60 N6         -2.3310   -4.9320   -2.5320 n         1 MOL     -0.351430
     61 C19        -1.4340   -6.1040   -2.8300 c3        1 MOL     -0.117493
     62 C20        -0.0430   -5.9010   -2.1390 c         1 MOL      0.510716
     63 O10         0.7770   -5.1550   -2.6410 o         1 MOL     -0.478753
     64 C21        -1.2660   -6.2600   -4.3630 c3        1 MOL     -0.197011
     65 C22        -0.4110   -7.4500   -4.5490 c         1 MOL      0.758238
     66 O11        -0.4870   -8.4770   -3.8560 o         1 MOL     -0.672321
     67 O12         0.3600   -7.3360   -5.5420 o         1 MOL     -0.672321
     68 H28        -2.6370   -4.4350   -3.3530 hn        1 MOL      0.271742
     69 H29        -1.9590   -6.9280   -2.3580 h1        1 MOL      0.070536
     70 H30        -0.8520   -5.3540   -4.8160 hc        1 MOL      0.070352
     71 H31        -2.2340   -6.5060   -4.8170 hc        1 MOL      0.070352
     72 N7          0.1190   -6.4920   -0.9770 n         1 MOL     -0.327778
     73 C23         1.2120   -6.4760   -0.0730 c3        1 MOL     -0.065841
     74 C24         1.1580   -5.4220    1.0540 c         1 MOL      0.475792
     75 O13         1.9890   -5.4750    1.9250 o         1 MOL     -0.551985
     76 H32        -0.6030   -7.1190   -0.6540 hn        1 MOL      0.271051
     77 H33         2.1740   -6.2930   -0.5570 h1        1 MOL      0.087221
     78 H34         1.2940   -7.4320    0.4580 h1        1 MOL      0.087221
     79 N8         -0.0050   -4.7240    1.2030 n         1 MOL     -0.285820
     80 C25        -0.2750   -3.7500    2.3210 c3        1 MOL      0.343474
     81 C26        -0.0720   -2.3270    1.8040 c         1 MOL      0.281071
     82 O14        -0.3750   -2.0320    0.6460 o         1 MOL     -0.509477
     83 C27        -1.6640   -3.8550    2.9340 c3        1 MOL      0.125468
     84 C28        -1.9710   -5.2460    3.5100 c3        1 MOL     -0.490749
     85 O15        -1.8510   -2.9730    3.9440 oh        1 MOL     -0.608491
     86 H35        -0.7980   -4.9220    0.6010 hn        1 MOL      0.127874
     87 H36         0.4990   -3.9590    3.0680 h1        1 MOL      0.011643
     88 H37        -2.4360   -3.5710    2.2060 h1        1 MOL      0.122573
     89 H38        -2.7270   -3.2010    4.2600 ho        1 MOL      0.431092
     90 H39        -1.2440   -5.4790    4.2850 hc        1 MOL      0.128406
     91 H40        -3.0200   -5.2250    3.8160 hc        1 MOL      0.128406
     92 H41        -1.7420   -5.9660    2.7180 hc        1 MOL      0.128406
     93 N9          0.2830   -1.4940    2.6970 n         1 MOL     -0.171857
     94 C29         0.7300   -0.1080    2.3930 c3        1 MOL     -0.167007
     95 C30         2.1300   -0.0830    1.6980 c         1 MOL      0.664646
     96 O16         2.4050    0.8550    0.9410 o         1 MOL     -0.529742
     97 C31         0.6380    0.7760    3.6850 c3        1 MOL      0.010058
     98 C32        -0.7900    0.7230    4.2210 c3        1 MOL      0.311993
     99 C33         0.9850    2.2530    3.3080 c3        1 MOL     -0.244161
    100 C34        -0.8770    1.2670    5.6890 c3        1 MOL     -0.299775
    101 H42         0.2390   -1.8770    3.6280 hn        1 MOL      0.210464
    102 H43        -0.0140    0.2700    1.6840 h1        1 MOL      0.126517
    103 H44         1.2960    0.4440    4.4800 hc        1 MOL      0.039186
    104 H45        -1.2430   -0.2680    4.2470 hc        1 MOL     -0.064779
    105 H46        -1.4760    1.2680    3.5660 hc        1 MOL     -0.064779
    106 H47         0.6770    3.0230    4.0130 hc        1 MOL      0.070849
    107 H48         2.0660    2.3620    3.2130 hc        1 MOL      0.070849
    108 H49         0.5570    2.4830    2.3300 hc        1 MOL      0.070849
    109 H50        -0.3380    0.6290    6.3890 hc        1 MOL      0.058770
    110 H51        -0.5540    2.3070    5.6660 hc        1 MOL      0.058770
    111 H52        -1.9290    1.4000    5.9360 hc        1 MOL      0.058770
    112 N10         2.8340   -1.2290    1.8030 n         1 MOL     -0.606467
    113 C35         4.0680   -1.4450    1.0320 c3        1 MOL      0.209758
    114 C36         5.2760   -1.7430    1.8120 c         1 MOL      0.701748
    115 O17         5.1110   -2.2380    2.9240 o         1 MOL     -0.566149
    116 C37         3.8180   -2.5490   -0.0400 c3        1 MOL      0.261625
    117 C38         2.8770   -2.1460   -1.1130 c3        1 MOL     -0.248492
    118 O18         4.9470   -3.1670   -0.6510 oh        1 MOL     -0.716456
    119 H53         2.4800   -1.9890    2.3580 hn        1 MOL      0.261631
    120 H54         4.2970   -0.5280    0.4810 h1        1 MOL     -0.000464
    121 H55         3.3500   -3.3040    0.5960 h1        1 MOL      0.005546
    122 H56         4.6690   -3.9760   -1.0860 ho        1 MOL      0.451198
    123 H57         3.0660   -1.2200   -1.6660 hc        1 MOL      0.081025
    124 H58         2.8530   -2.8640   -1.9260 hc        1 MOL      0.081025
    125 H59         1.8850   -1.9990   -0.6790 hc        1 MOL      0.081025
    126 N11         6.4700   -1.4240    1.3330 n         1 MOL     -0.755556
    127 C39         7.7400   -1.5570    2.1230 c3        1 MOL      0.080263
    128 C40         8.5730   -0.2490    1.9380 c         1 MOL      0.698685
    129 O19         9.1480    0.0900    2.9220 o         1 MOL     -0.570127
    130 C41         8.5630   -2.7470    1.6410 c3        1 MOL      0.288010
    131 C42         9.9370   -3.0010    2.2350 c3        1 MOL     -0.371923
    132 O20         8.7240   -2.5290    0.2980 oh        1 MOL     -0.580515
    133 H60         6.4900   -1.2660    0.3430 hn        1 MOL      0.396596
    134 H61         7.6100   -1.8090    3.1820 h1        1 MOL      0.093216
    135 H62         7.9200   -3.6140    1.7670 h1        1 MOL      0.060453
    136 H63         8.9020   -3.4020   -0.0790 ho        1 MOL      0.354359
    137 H64        10.6300   -2.1650    2.1030 hc        1 MOL      0.091485
    138 H65         9.9880   -3.3150    3.2740 hc        1 MOL      0.091485
    139 H66        10.3150   -3.7850    1.5830 hc        1 MOL      0.091485
    140 N12         8.6040    0.4140    0.7480 n         1 MOL     -0.517644
    141 C43         9.4900    1.6080    0.4350 c3        1 MOL      0.081813
    142 C44         8.8790    2.3700   -0.7160 c         1 MOL      0.490204
    143 O21         8.1740    1.7840   -1.5550 o         1 MOL     -0.511865
    144 C45        10.8890    1.1550    0.1450 c3        1 MOL     -0.464810
    145 C46        11.0130    0.0650   -0.9460 c3        1 MOL      0.271701
    146 C47        12.4120   -0.5910   -1.0720 c3        1 MOL     -0.195359
    147 C48        12.5200   -1.6060   -2.2460 c3        1 MOL     -0.231975
    148 N13        11.5020   -2.6070   -2.1540 n4        1 MOL     -0.133577
    149 H67         8.1500   -0.0400   -0.0450 hn        1 MOL      0.260710
    150 H68         9.5000    2.1830    1.3570 h1        1 MOL      0.096342
    151 H69        11.2120    0.7340    1.1000 hc        1 MOL      0.136291
    152 H70        11.5300    2.0210   -0.0480 hc        1 MOL      0.136291
    153 H71        10.7310    0.5860   -1.8540 hc        1 MOL      0.005375
    154 H72        10.1900   -0.6060   -0.7070 hc        1 MOL      0.005375
    155 H73        12.6650   -1.0100   -0.0990 hc        1 MOL      0.090922
    156 H74        13.2440    0.1000   -1.2320 hc        1 MOL      0.090922
    157 H75        13.4980   -2.1030   -2.2080 hx        1 MOL      0.164457
    158 H76        12.4740   -0.9840   -3.1370 hx        1 MOL      0.164457
    159 H77        11.6920   -3.3930   -2.7510 hn        1 MOL      0.230395
    160 H78        11.3660   -3.0480   -1.2550 hn        1 MOL      0.230395
    161 H79        10.6370   -2.2520   -2.5430 hn        1 MOL      0.230395
    162 N14         9.0280    3.6840   -0.7020 n         1 MOL     -0.482073
    163 C49         8.4800    4.6310   -1.7080 c3        1 MOL      0.297375
    164 C50         6.9090    4.7130   -1.6620 c         1 MOL      0.341422
    165 O22         6.2100    4.7820   -2.6740 o         1 MOL     -0.506573
    166 C51         9.0070    6.0320   -1.5770 c3        1 MOL      0.013744
    167 C52        10.4740    6.0860   -2.0220 c3        1 MOL     -0.191550
    168 C53        10.9860    7.5400   -2.0720 c         1 MOL      0.735038
    169 O23        11.5230    8.0140   -3.0680 o         1 MOL     -0.668624
    170 O24        10.8740    8.1980   -1.0290 o         1 MOL     -0.668624
    171 H80         9.6210    4.0490    0.0250 hn        1 MOL      0.324113
    172 H81         8.6960    4.2760   -2.7190 h1        1 MOL      0.030303
    173 H82         8.9920    6.3430   -0.5280 hc        1 MOL      0.017812
    174 H83         8.3980    6.6530   -2.2460 hc        1 MOL      0.017812
    175 H84        10.6160    5.6480   -3.0110 hc        1 MOL     -0.006860
    176 H85        10.9860    5.4850   -1.2800 hc        1 MOL     -0.006860
    177 N15         6.2450    4.6110   -0.4780 n         1 MOL     -0.316450
    178 C54         6.6440    4.9920    0.9020 c3        1 MOL     -0.068321
    179 H86         5.8110    4.8160    1.5820 h1        1 MOL      0.050573
    180 H87         7.4990    4.3930    1.2120 h1        1 MOL      0.050573
    181 H88         6.9130    6.0490    0.9240 h1        1 MOL      0.050573
    182 H89         5.3000    4.2720   -0.5560 hn        1 MOL      0.284726
    183 Ca1        -5.9390    4.8340    0.6020 Ca        1 MOL      1.714831
    184 O25        -4.5190    7.2470    0.7730 oh        1 MOL     -0.857095
    185 H90        -5.3190    7.5590    1.1990 ho        1 MOL      0.428236
    186 H91        -4.0250    8.0460    0.5920 ho        1 MOL      0.428236
    187 O26        -3.7560    4.4440    2.0800 oh        1 MOL     -0.857095
    188 H92        -3.8850    3.5350    2.3630 ho        1 MOL      0.428236
    189 H93        -2.8360    4.4800    1.8220 ho        1 MOL      0.428236
    190 O27        -7.3340    3.9340    2.6960 oh        1 MOL     -0.857095
    191 H94        -7.9960    4.5040    3.0750 ho        1 MOL      0.428236
    192 H95        -7.1840    3.2700    3.3720 ho        1 MOL      0.428236
    193 O28        -4.2660    5.1880   -1.7750 oh        1 MOL     -0.857095
    194 H96        -5.0110    5.2020   -2.3790 ho        1 MOL      0.428236
    195 H97        -3.5530    5.6030   -2.2620 ho        1 MOL      0.428236
@<TRIPOS>BOND
     1    1    2 1   
     2    1    4 1   
     3    1    5 1   
     4    1    6 1   
     5    2    3 2   
     6    2    7 1   
     7    7    8 1   
     8    7   15 1   
     9    8    9 1   
    10    8   11 1   
    11    8   16 1   
    12    9   10 2   
    13    9   19 1   
    14   11   12 1   
    15   11   17 1   
    16   11   18 1   
    17   12   13 1   
    18   12   14 1   
    19   19   20 1   
    20   19   28 1   
    21   20   21 1   
    22   20   23 1   
    23   20   29 1   
    24   21   22 2   
    25   21   41 1   
    26   23   24 1   
    27   23   30 1   
    28   23   31 1   
    29   24   25 1   
    30   24   32 1   
    31   24   33 1   
    32   25   26 1   
    33   25   34 1   
    34   25   35 1   
    35   26   27 1   
    36   26   36 1   
    37   26   37 1   
    38   27   38 1   
    39   27   39 1   
    40   27   40 1   
    41   41   42 1   
    42   41   49 1   
    43   42   43 1   
    44   42   45 1   
    45   42   50 1   
    46   43   44 2   
    47   43   53 1   
    48   45   46 1   
    49   45   51 1   
    50   45   52 1   
    51   46   47 1   
    52   46   48 1   
    53   53   54 1   
    54   53   57 1   
    55   54   55 1   
    56   54   58 1   
    57   54   59 1   
    58   55   56 2   
    59   55   60 1   
    60   60   61 1   
    61   60   68 1   
    62   61   62 1   
    63   61   64 1   
    64   61   69 1   
    65   62   63 2   
    66   62   72 1   
    67   64   65 1   
    68   64   70 1   
    69   64   71 1   
    70   65   66 1   
    71   65   67 1   
    72   72   73 1   
    73   72   76 1   
    74   73   74 1   
    75   73   77 1   
    76   73   78 1   
    77   74   75 2   
    78   74   79 1   
    79   79   80 1   
    80   79   86 1   
    81   80   81 1   
    82   80   83 1   
    83   80   87 1   
    84   81   82 2   
    85   81   93 1   
    86   83   84 1   
    87   83   85 1   
    88   83   88 1   
    89   84   90 1   
    90   84   91 1   
    91   84   92 1   
    92   85   89 1   
    93   93   94 1   
    94   93  101 1   
    95   94   95 1   
    96   94   97 1   
    97   94  102 1   
    98   95   96 2   
    99   95  112 1   
   100   97   98 1   
   101   97   99 1   
   102   97  103 1   
   103   98  100 1   
   104   98  104 1   
   105   98  105 1   
   106   99  106 1   
   107   99  107 1   
   108   99  108 1   
   109  100  109 1   
   110  100  110 1   
   111  100  111 1   
   112  112  113 1   
   113  112  119 1   
   114  113  114 1   
   115  113  116 1   
   116  113  120 1   
   117  114  115 2   
   118  114  126 1   
   119  116  117 1   
   120  116  118 1   
   121  116  121 1   
   122  117  123 1   
   123  117  124 1   
   124  117  125 1   
   125  118  122 1   
   126  126  127 1   
   127  126  133 1   
   128  127  128 1   
   129  127  130 1   
   130  127  134 1   
   131  128  129 2   
   132  128  140 1   
   133  130  131 1   
   134  130  132 1   
   135  130  135 1   
   136  131  137 1   
   137  131  138 1   
   138  131  139 1   
   139  132  136 1   
   140  140  141 1   
   141  140  149 1   
   142  141  142 1   
   143  141  144 1   
   144  141  150 1   
   145  142  143 2   
   146  142  162 1   
   147  144  145 1   
   148  144  151 1   
   149  144  152 1   
   150  145  146 1   
   151  145  153 1   
   152  145  154 1   
   153  146  147 1   
   154  146  155 1   
   155  146  156 1   
   156  147  148 1   
   157  147  157 1   
   158  147  158 1   
   159  148  159 1   
   160  148  160 1   
   161  148  161 1   
   162  162  163 1   
   163  162  171 1   
   164  163  164 1   
   165  163  166 1   
   166  163  172 1   
   167  164  165 2   
   168  164  177 1   
   169  166  167 1   
   170  166  173 1   
   171  166  174 1   
   172  167  168 1   
   173  167  175 1   
   174  167  176 1   
   175  168  169 1   
   176  168  170 1   
   177  177  178 1   
   178  177  182 1   
   179  178  179 1   
   180  178  180 1   
   181  178  181 1   
   182  184  185 1   
   183  184  186 1   
   184  187  188 1   
   185  187  189 1   
   186  190  191 1   
   187  190  192 1   
   188  193  194 1   
   189  193  195 1   
@<TRIPOS>SUBSTRUCTURE
     1 MOL         1 TEMP              0 ****  ****    0 ROOT
