@<TRIPOS>MOLECULE
MOL
  181   177     1     0     0
SMALL
resp


@<TRIPOS>ATOM
      1 C1          6.6210    1.2930    6.4740 c3        1 MOL     -0.261715
      2 C2          5.9700    1.9590    5.2220 c         1 MOL      0.629606
      3 O1          4.9650    2.5900    5.3560 o         1 MOL     -0.570330
      4 H1          5.8910    1.2500    7.2820 hc        1 MOL      0.057079
      5 H2          6.9450    0.2840    6.2220 hc        1 MOL      0.057079
      6 H3          7.4820    1.8820    6.7920 hc        1 MOL      0.057079
      7 N1          6.6000    1.8260    4.0560 n         1 MOL     -0.422153
      8 C3          7.8860    1.2070    3.7480 c3        1 MOL      0.017600
      9 C4          7.7170   -0.1950    3.2020 c         1 MOL      0.788527
     10 O2          6.7700   -0.5070    2.4990 o         1 MOL     -0.762250
     11 C5          8.7010    2.1910    2.9210 c3        1 MOL     -0.232147
     12 C6          7.9240    2.9250    1.7880 c         1 MOL      0.653449
     13 O3          8.3300    4.1410    1.5510 o         1 MOL     -0.687354
     14 O4          6.8920    2.4720    1.2260 o         1 MOL     -0.687354
     15 H4          5.8810    1.8720    3.3500 hn        1 MOL      0.315850
     16 H5          8.4820    1.0630    4.6520 h1        1 MOL      0.027263
     17 H6          9.5740    1.6970    2.4940 hc        1 MOL      0.066587
     18 H7          9.0990    2.9600    3.5810 hc        1 MOL      0.066587
     19 N2          8.7380   -1.0010    3.4100 n         1 MOL     -0.652021
     20 C7          8.9990   -2.3820    3.0590 c3        1 MOL      0.381777
     21 C8          8.8430   -2.8270    1.5760 c         1 MOL      0.368999
     22 O5          9.6610   -3.4740    0.9500 o         1 MOL     -0.569554
     23 C9          8.1060   -3.2460    3.9500 c3        1 MOL     -0.559707
     24 H8          9.4660   -0.6100    3.9830 hn        1 MOL      0.302099
     25 H9         10.0400   -2.6010    3.2940 h1        1 MOL      0.001618
     26 H10         7.0660   -3.1670    3.6420 hc        1 MOL      0.154874
     27 H11         8.3720   -4.2940    3.8320 hc        1 MOL      0.154874
     28 H12         8.2030   -2.8530    4.9600 hc        1 MOL      0.154874
     29 N3          7.6930   -2.5030    1.0010 n         1 MOL     -0.250543
     30 C10         7.3720   -2.7290   -0.3840 c3        1 MOL     -0.096780
     31 C11         7.5480   -1.3890   -1.1570 c         1 MOL      0.509907
     32 O6          7.2850   -0.3290   -0.6490 o         1 MOL     -0.501355
     33 C12         5.9980   -3.4020   -0.5170 c3        1 MOL      0.189422
     34 C13         4.8530   -2.7370    0.1940 c         1 MOL      0.418204
     35 O7          3.8800   -3.4730    0.4940 o         1 MOL     -0.604856
     36 O8          4.9330   -1.5480    0.5980 o         1 MOL     -0.604856
     37 H13         7.0280   -1.9650    1.5490 hn        1 MOL      0.325183
     38 H14         8.0680   -3.4980   -0.7240 h1        1 MOL      0.086628
     39 H15         6.0400   -4.4300   -0.1540 hc        1 MOL     -0.030159
     40 H16         5.8680   -3.4590   -1.5970 hc        1 MOL     -0.030159
     41 N4          7.9700   -1.5920   -2.4000 n         1 MOL     -0.304683
     42 C14         7.9890   -0.6310   -3.4300 c3        1 MOL     -0.251140
     43 C15         6.5940   -0.2720   -3.9810 c         1 MOL      0.566331
     44 O9          6.3770    0.8190   -4.5100 o         1 MOL     -0.573500
     45 H17         8.4030   -2.4620   -2.6490 hn        1 MOL      0.268143
     46 H18         8.5480   -0.9350   -4.3080 h1        1 MOL      0.134400
     47 H19         8.4110    0.3570   -3.2250 h1        1 MOL      0.134400
     48 N5          5.6710   -1.2600   -3.9040 n         1 MOL     -0.391983
     49 C16         4.1960   -1.2030   -4.1620 c3        1 MOL     -0.088316
     50 C17         3.4950   -0.1000   -3.2730 c         1 MOL      0.717562
     51 O10         3.9390    0.0940   -2.1230 o         1 MOL     -0.657006
     52 C18         3.6520   -2.6540   -3.8890 c3        1 MOL     -0.321627
     53 C19         4.1480   -3.6770   -4.8690 c         1 MOL      0.676834
     54 N6          3.7520   -3.8140   -6.0960 n         1 MOL     -0.735219
     55 O11         5.1120   -4.3810   -4.5070 o         1 MOL     -0.568993
     56 H20         5.9720   -2.0410   -3.3360 hn        1 MOL      0.232225
     57 H21         3.9980   -0.9200   -5.1960 h1        1 MOL      0.101038
     58 H22         2.5660   -2.6250   -3.9260 hc        1 MOL      0.136240
     59 H23         3.9670   -2.8360   -2.8610 hc        1 MOL      0.136240
     60 H24         3.0370   -3.1630   -6.4160 hn        1 MOL      0.363194
     61 H25         4.2720   -4.5270   -6.5790 hn        1 MOL      0.363194
     62 N7          2.4890    0.5940   -3.7880 n         1 MOL     -0.489598
     63 C20         1.5700    1.3360   -2.9950 c3        1 MOL      0.071576
     64 C21         0.5610    2.0680   -3.9360 c         1 MOL      0.601924
     65 O12         0.5090    1.7930   -5.1160 o         1 MOL     -0.541892
     66 H26         2.3550    0.5640   -4.7890 hn        1 MOL      0.269761
     67 H27         2.0690    2.0360   -2.3290 h1        1 MOL      0.066469
     68 H28         0.9210    0.6480   -2.4500 h1        1 MOL      0.066469
     69 N8         -0.1390    3.0260   -3.3280 n         1 MOL     -0.490342
     70 C22        -0.1430    3.5440   -1.9350 c3        1 MOL     -0.338750
     71 C23        -1.5100    3.3110   -1.3440 c         1 MOL      0.707889
     72 O13        -2.5510    3.6020   -1.9760 o         1 MOL     -0.475511
     73 C24         0.2690    5.0690   -1.9600 c3        1 MOL      0.384495
     74 C25        -0.1800    5.7350   -0.6190 c3        1 MOL     -0.451858
     75 O14         1.7030    5.0860   -1.9550 oh        1 MOL     -0.659113
     76 H29        -0.8670    3.4380   -3.9040 hn        1 MOL      0.316980
     77 H30         0.5870    3.0380   -1.3080 h1        1 MOL      0.214803
     78 H31        -0.1180    5.6440   -2.7990 h1        1 MOL      0.053252
     79 H32         2.0330    5.9260   -2.2670 ho        1 MOL      0.404668
     80 H33         0.1950    6.7460   -0.4960 hc        1 MOL      0.135884
     81 H34        -1.2700    5.7490   -0.5050 hc        1 MOL      0.135884
     82 H35         0.2180    5.2500    0.2730 hc        1 MOL      0.135884
     83 N9         -1.5460    2.7900   -0.0630 n         1 MOL     -0.685886
     84 C26        -2.8180    2.4070    0.5970 c3        1 MOL      0.015772
     85 C27        -3.5650    3.7730    0.9160 c         1 MOL      0.521854
     86 O15        -2.9510    4.6830    1.5400 o         1 MOL     -0.594293
     87 C28        -2.4980    1.6040    1.8610 c3        1 MOL      0.128159
     88 C29        -2.0760    0.2140    1.4270 c3        1 MOL      0.161078
     89 C30        -3.7350    1.4310    2.7740 c3        1 MOL     -0.336366
     90 C31        -1.4670   -0.6570    2.5100 c3        1 MOL     -0.327411
     91 H36        -0.6880    2.5820    0.4110 hn        1 MOL      0.316020
     92 H37        -3.3430    1.7340   -0.0960 h1        1 MOL      0.100923
     93 H38        -1.6840    2.1190    2.3730 hc        1 MOL      0.017928
     94 H39        -1.3440    0.1710    0.6140 hc        1 MOL     -0.034936
     95 H40        -2.9400   -0.3450    1.0850 hc        1 MOL     -0.034936
     96 H41        -3.4510    0.9850    3.7300 hc        1 MOL      0.096022
     97 H42        -4.1930    2.3950    2.9760 hc        1 MOL      0.096022
     98 H43        -4.5160    0.8120    2.3410 hc        1 MOL      0.096022
     99 H44        -2.1220   -0.8470    3.3590 hc        1 MOL      0.062528
    100 H45        -1.2700   -1.6310    2.0620 hc        1 MOL      0.062528
    101 H46        -0.5590   -0.1500    2.8390 hc        1 MOL      0.062528
    102 N10        -4.7750    4.0320    0.4800 n         1 MOL     -0.398677
    103 C32        -5.6150    3.3520   -0.5710 c3        1 MOL      0.221313
    104 C33        -6.6980    2.4710    0.0590 c         1 MOL      0.441629
    105 O16        -6.8530    2.5580    1.3120 o         1 MOL     -0.530780
    106 C34        -6.2200    4.4390   -1.4720 c3        1 MOL     -0.277019
    107 C35        -6.8770    5.6030   -0.6970 c         1 MOL      0.775492
    108 O17        -7.9490    5.4290   -0.1190 o         1 MOL     -0.731580
    109 O18        -6.3700    6.7020   -0.6330 o         1 MOL     -0.731580
    110 H47        -5.1810    4.8280    0.9440 hn        1 MOL      0.324893
    111 H48        -4.9090    2.7510   -1.1540 h1        1 MOL      0.011001
    112 H49        -6.9560    4.0080   -2.1480 hc        1 MOL      0.028280
    113 H50        -5.3540    4.8060   -2.0260 hc        1 MOL      0.028280
    114 N11        -7.3850    1.7110   -0.7450 n         1 MOL     -0.602373
    115 C36        -8.1890    0.5380   -0.3350 c3        1 MOL      0.477913
    116 C37        -8.1690   -0.5040   -1.4460 c         1 MOL      0.199030
    117 O19        -8.2060   -0.1360   -2.6270 o         1 MOL     -0.500034
    118 C38        -9.6040    1.0140   -0.0310 c3        1 MOL     -0.236983
    119 C39       -10.4160   -0.0360    0.6810 ca        1 MOL      0.097776
    120 C40       -11.4380   -0.7250    0.0120 ca        1 MOL     -0.136107
    121 C41       -10.2900   -0.1510    2.0390 ca        1 MOL     -0.136107
    122 C42       -12.2160   -1.6150    0.7020 ca        1 MOL     -0.124437
    123 C43       -11.0930   -1.0780    2.7540 ca        1 MOL     -0.124437
    124 C44       -12.0630   -1.8400    2.0660 ca        1 MOL     -0.132576
    125 H51        -7.1470    1.7460   -1.7220 hn        1 MOL      0.327942
    126 H52        -7.6700    0.1710    0.5530 h1        1 MOL     -0.020183
    127 H53       -10.1340    1.3010   -0.9360 hc        1 MOL      0.100497
    128 H54        -9.5810    1.9310    0.5550 hc        1 MOL      0.100497
    129 H55       -11.5590   -0.6280   -1.0650 ha        1 MOL      0.115060
    130 H56        -9.5750    0.5000    2.5250 ha        1 MOL      0.115060
    131 H57       -12.9090   -2.2330    0.1500 ha        1 MOL      0.098773
    132 H58       -10.8410   -1.2440    3.7920 ha        1 MOL      0.098773
    133 H59       -12.7150   -2.5480    2.5520 ha        1 MOL      0.101414
    134 N12        -8.1500   -1.8620   -1.1750 n         1 MOL      0.089093
    135 C45        -7.8790   -2.7320    0.0210 c3        1 MOL      0.051907
    136 C46        -6.4240   -2.5370    0.5650 c         1 MOL      0.290016
    137 O20        -5.8250   -1.4470    0.4600 o         1 MOL     -0.475095
    138 C47        -8.0300   -4.1900   -0.4560 c3        1 MOL     -0.114110
    139 C48        -9.1220   -4.0480   -1.5820 c3        1 MOL     -0.185414
    140 C49        -8.6080   -2.7660   -2.2090 c3        1 MOL     -0.043475
    141 H60        -8.6210   -2.3680    0.7330 h1        1 MOL      0.006848
    142 H61        -7.0680   -4.4510   -0.8850 hc        1 MOL      0.071200
    143 H62        -8.3250   -4.8820    0.3250 hc        1 MOL      0.071200
    144 H63        -8.9820   -4.8710   -2.2940 hc        1 MOL      0.069133
    145 H64       -10.1050   -3.7840   -1.2150 hc        1 MOL      0.069133
    146 H65        -7.7440   -2.9760   -2.8370 h1        1 MOL      0.057593
    147 H66        -9.4320   -2.2720   -2.7250 h1        1 MOL      0.057593
    148 N13        -5.8130   -3.4830    1.2960 n         1 MOL     -0.357344
    149 C50        -4.4600   -3.3890    1.8840 c3        1 MOL      0.371323
    150 C51        -4.3230   -4.0610    3.2780 c         1 MOL      0.280491
    151 O21        -3.6350   -5.0440    3.3680 o         1 MOL     -0.493522
    152 C52        -3.4230   -3.7560    0.7920 c3        1 MOL      0.215075
    153 C53        -3.6320   -5.1210    0.1090 c3        1 MOL     -0.099641
    154 C54        -2.8340   -5.3490   -1.1250 c         1 MOL      0.594955
    155 O22        -3.2560   -5.0030   -2.2890 o         1 MOL     -0.710818
    156 O23        -1.6450   -5.6340   -0.9680 o         1 MOL     -0.710818
    157 H67        -6.2870   -4.3400    1.5430 hn        1 MOL      0.230705
    158 H68        -4.3030   -2.3120    2.0000 h1        1 MOL     -0.001678
    159 H69        -2.4300   -3.7000    1.2430 hc        1 MOL     -0.018928
    160 H70        -3.5240   -3.0340   -0.0180 hc        1 MOL     -0.018928
    161 H71        -4.6670   -5.1990   -0.2070 hc        1 MOL     -0.044034
    162 H72        -3.5240   -5.8570    0.9050 hc        1 MOL     -0.044034
    163 N14        -5.0850   -3.6680    4.3030 n         1 MOL     -0.327985
    164 C55        -5.9550   -2.5100    4.4240 c3        1 MOL     -0.140462
    165 H73        -5.6350   -1.9030    5.2710 h1        1 MOL      0.078779
    166 H74        -5.8990   -1.9170    3.5110 h1        1 MOL      0.078779
    167 H75        -6.9820   -2.8410    4.5810 h1        1 MOL      0.078779
    168 H76        -4.9120   -4.1970    5.1570 hn        1 MOL      0.274140
    169 Ca1         5.0530    0.8670    0.1440 Ca        1 MOL      1.747912
    170 O24         3.7590    3.1820   -1.0190 oh        1 MOL     -0.828818
    171 H77         3.9780    3.4100   -1.9260 ho        1 MOL      0.411814
    172 H78         3.0210    3.7480   -0.8030 ho        1 MOL      0.411814
    173 O25         2.2550    0.7530    0.3630 oh        1 MOL     -0.828818
    174 H79         2.0350   -0.0530   -0.0960 ho        1 MOL      0.411814
    175 H80         1.4280    1.0510    0.7540 ho        1 MOL      0.411814
    176 O26         6.6670    2.1060   -1.7770 oh        1 MOL     -0.828818
    177 H81         7.4240    2.6360   -1.5440 ho        1 MOL      0.411814
    178 H82         6.4130    2.4180   -2.6410 ho        1 MOL      0.411814
    179 O27         4.0490    2.1070    2.3360 oh        1 MOL     -0.828818
    180 H83         3.9480    2.9950    2.6810 ho        1 MOL      0.411814
    181 H84         3.4280    1.5820    2.8220 ho        1 MOL      0.411814
@<TRIPOS>BOND
     1    1    2 1   
     2    1    4 1   
     3    1    5 1   
     4    1    6 1   
     5    2    3 2   
     6    2    7 1   
     7    7    8 1   
     8    7   15 1   
     9    8    9 1   
    10    8   11 1   
    11    8   16 1   
    12    9   10 2   
    13    9   19 1   
    14   11   12 1   
    15   11   17 1   
    16   11   18 1   
    17   12   13 1   
    18   12   14 1   
    19   19   20 1   
    20   19   24 1   
    21   20   21 1   
    22   20   23 1   
    23   20   25 1   
    24   21   22 2   
    25   21   29 1   
    26   23   26 1   
    27   23   27 1   
    28   23   28 1   
    29   29   30 1   
    30   29   37 1   
    31   30   31 1   
    32   30   33 1   
    33   30   38 1   
    34   31   32 2   
    35   31   41 1   
    36   33   34 1   
    37   33   39 1   
    38   33   40 1   
    39   34   35 1   
    40   34   36 1   
    41   41   42 1   
    42   41   45 1   
    43   42   43 1   
    44   42   46 1   
    45   42   47 1   
    46   43   44 2   
    47   43   48 1   
    48   48   49 1   
    49   48   56 1   
    50   49   50 1   
    51   49   52 1   
    52   49   57 1   
    53   50   51 2   
    54   50   62 1   
    55   52   53 1   
    56   52   58 1   
    57   52   59 1   
    58   53   54 1   
    59   53   55 2   
    60   54   60 1   
    61   54   61 1   
    62   62   63 1   
    63   62   66 1   
    64   63   64 1   
    65   63   67 1   
    66   63   68 1   
    67   64   65 2   
    68   64   69 1   
    69   69   70 1   
    70   69   76 1   
    71   70   71 1   
    72   70   73 1   
    73   70   77 1   
    74   71   72 2   
    75   71   83 1   
    76   73   74 1   
    77   73   75 1   
    78   73   78 1   
    79   74   80 1   
    80   74   81 1   
    81   74   82 1   
    82   75   79 1   
    83   83   84 1   
    84   83   91 1   
    85   84   85 1   
    86   84   87 1   
    87   84   92 1   
    88   85   86 2   
    89   85  102 1   
    90   87   88 1   
    91   87   89 1   
    92   87   93 1   
    93   88   90 1   
    94   88   94 1   
    95   88   95 1   
    96   89   96 1   
    97   89   97 1   
    98   89   98 1   
    99   90   99 1   
   100   90  100 1   
   101   90  101 1   
   102  102  103 1   
   103  102  110 1   
   104  103  104 1   
   105  103  106 1   
   106  103  111 1   
   107  104  105 2   
   108  104  114 1   
   109  106  107 1   
   110  106  112 1   
   111  106  113 1   
   112  107  108 1   
   113  107  109 1   
   114  114  115 1   
   115  114  125 1   
   116  115  116 1   
   117  115  118 1   
   118  115  126 1   
   119  116  117 2   
   120  116  134 1   
   121  118  119 1   
   122  118  127 1   
   123  118  128 1   
   124  119  120 ar  
   125  119  121 ar  
   126  120  122 ar  
   127  120  129 1   
   128  121  123 ar  
   129  121  130 1   
   130  122  124 ar  
   131  122  131 1   
   132  123  124 ar  
   133  123  132 1   
   134  124  133 1   
   135  134  135 1   
   136  134  140 1   
   137  135  136 1   
   138  135  138 1   
   139  135  141 1   
   140  136  137 2   
   141  136  148 1   
   142  138  139 1   
   143  138  142 1   
   144  138  143 1   
   145  139  140 1   
   146  139  144 1   
   147  139  145 1   
   148  140  146 1   
   149  140  147 1   
   150  148  149 1   
   151  148  157 1   
   152  149  150 1   
   153  149  152 1   
   154  149  158 1   
   155  150  151 2   
   156  150  163 1   
   157  152  153 1   
   158  152  159 1   
   159  152  160 1   
   160  153  154 1   
   161  153  161 1   
   162  153  162 1   
   163  154  155 1   
   164  154  156 1   
   165  163  164 1   
   166  163  168 1   
   167  164  165 1   
   168  164  166 1   
   169  164  167 1   
   170  170  171 1   
   171  170  172 1   
   172  173  174 1   
   173  173  175 1   
   174  176  177 1   
   175  176  178 1   
   176  179  180 1   
   177  179  181 1   
@<TRIPOS>SUBSTRUCTURE
     1 MOL         1 TEMP              0 ****  ****    0 ROOT
