@<TRIPOS>MOLECULE
MOL
  189   185     1     0     0
SMALL
resp


@<TRIPOS>ATOM
      1 C1          4.3120    4.5590   -3.3340 c3        1 MOL     -0.503959
      2 C2          5.0280    3.6100   -2.3150 c         1 MOL      0.838915
      3 O1          4.4900    3.3250   -1.2400 o         1 MOL     -0.658959
      4 H1          3.2330    4.4400   -3.2450 hc        1 MOL      0.128848
      5 H2          4.5820    5.5930   -3.1200 hc        1 MOL      0.128848
      6 H3          4.6220    4.3050   -4.3470 hc        1 MOL      0.128848
      7 N1          6.2710    3.2230   -2.6380 n         1 MOL     -0.709404
      8 C3          7.1550    2.2610   -1.9040 c3        1 MOL      0.337717
      9 C4          6.3730    0.9760   -1.5720 c         1 MOL      0.402611
     10 O2          5.8400    0.7460   -0.4750 o         1 MOL     -0.536547
     11 C5          7.9870    2.8970   -0.7230 c3        1 MOL     -0.047247
     12 C6          7.2090    3.8160    0.1950 c         1 MOL      0.735758
     13 O3          6.2690    3.4070    0.9000 o         1 MOL     -0.747471
     14 O4          7.5860    5.0180    0.1150 o         1 MOL     -0.747471
     15 H4          6.6720    3.5950   -3.4930 hn        1 MOL      0.322299
     16 H5          7.9160    1.9680   -2.6340 h1        1 MOL     -0.000936
     17 H6          8.7980    3.3800   -1.2750 hc        1 MOL     -0.008810
     18 H7          8.4400    2.0400   -0.2130 hc        1 MOL     -0.008810
     19 N2          6.0970    0.2090   -2.6480 n         1 MOL     -0.538866
     20 C7          5.2200   -0.9710   -2.8360 c3        1 MOL      0.472509
     21 C8          5.8410   -2.2240   -2.1650 c         1 MOL      0.306837
     22 O5          6.2880   -3.1490   -2.8730 o         1 MOL     -0.567111
     23 C9          3.7160   -0.6810   -2.5480 c3        1 MOL      0.053034
     24 C10         2.8270   -1.8440   -2.8980 c3        1 MOL     -0.106250
     25 C11         3.1670    0.5280   -3.3850 c3        1 MOL     -0.341464
     26 C12         2.8180   -2.3790   -4.3630 c3        1 MOL     -0.311932
     27 H8          6.4310    0.6540   -3.4960 hn        1 MOL      0.240149
     28 H9          5.3240   -1.2580   -3.8800 h1        1 MOL     -0.038699
     29 H10         3.5700   -0.3330   -1.5260 hc        1 MOL     -0.040358
     30 H11         1.7850   -1.5520   -2.7630 hc        1 MOL      0.135986
     31 H12         3.1780   -2.7710   -2.4460 hc        1 MOL      0.135986
     32 H13         3.5560    1.4780   -3.0000 hc        1 MOL      0.069711
     33 H14         3.4820    0.4990   -4.4310 hc        1 MOL      0.069711
     34 H15         2.0810    0.5470   -3.3490 hc        1 MOL      0.069711
     35 H16         2.0540   -3.1340   -4.5550 hc        1 MOL      0.056919
     36 H17         2.6680   -1.5270   -5.0150 hc        1 MOL      0.056919
     37 H18         3.8090   -2.7730   -4.5720 hc        1 MOL      0.056919
     38 N3          5.8580   -2.3020   -0.8230 n         1 MOL     -0.079515
     39 C13         6.6500   -3.3460   -0.1490 c3        1 MOL      0.129745
     40 C14         5.8730   -4.6910    0.1170 c         1 MOL      0.512001
     41 O6          6.5870   -5.6760   -0.0200 o         1 MOL     -0.599485
     42 C15         7.2700   -2.7830    1.1310 c3        1 MOL     -0.283877
     43 C16         8.0040   -1.4770    0.8500 c         1 MOL      0.772054
     44 O7          8.5900   -1.3430   -0.2220 o         1 MOL     -0.710824
     45 O8          8.1870   -0.6410    1.7870 o         1 MOL     -0.710824
     46 H19         5.5670   -1.5000   -0.2880 hn        1 MOL      0.102438
     47 H20         7.5330   -3.5960   -0.7370 h1        1 MOL      0.062950
     48 H21         7.8820   -3.5020    1.6560 hc        1 MOL      0.059756
     49 H22         6.4520   -2.6830    1.8520 hc        1 MOL      0.059756
     50 N4          4.5950   -4.8060    0.4750 n         1 MOL     -0.466478
     51 C17         3.6670   -3.6870    0.7690 c3        1 MOL      0.180211
     52 C18         2.4240   -4.2090    1.5420 c         1 MOL      0.534781
     53 O9          2.0860   -5.3520    1.4250 o         1 MOL     -0.595230
     54 H23         4.1540   -5.7170    0.5490 hn        1 MOL      0.285031
     55 H24         3.2880   -3.0810   -0.0590 h1        1 MOL     -0.057082
     56 H25         4.2210   -2.9530    1.3620 h1        1 MOL     -0.057082
     57 N5          1.7520   -3.5400    2.4810 n         1 MOL     -0.299310
     58 C19         2.0580   -2.1310    2.9060 c3        1 MOL      0.119988
     59 C20         2.2090   -1.0380    1.7610 c         1 MOL      0.170853
     60 O10         3.2460   -0.5620    1.3920 o         1 MOL     -0.454352
     61 C21         3.2400   -2.1090    3.8820 c3        1 MOL     -0.381820
     62 C22         3.4340   -0.7220    4.5550 c         1 MOL      0.846646
     63 O11         4.6090   -0.3100    4.8000 o         1 MOL     -0.723640
     64 O12         2.4340   -0.1240    5.0580 o         1 MOL     -0.723640
     65 H26         0.9920   -4.0590    2.8870 hn        1 MOL      0.179217
     66 H27         1.2410   -1.7330    3.4970 h1        1 MOL      0.069378
     67 H28         4.1860   -2.3670    3.4040 hc        1 MOL      0.093174
     68 H29         3.1340   -2.7910    4.7230 hc        1 MOL      0.093174
     69 N6          1.1030   -0.5130    1.2240 n         1 MOL     -0.025014
     70 C23        -0.3130   -0.9500    1.2700 c3        1 MOL     -0.149638
     71 C24        -0.4610   -2.2750    0.4940 c         1 MOL      0.498007
     72 O13         0.3290   -2.6130   -0.3620 o         1 MOL     -0.552000
     73 H30         1.2240    0.3120    0.6480 hn        1 MOL      0.123158
     74 H31        -0.9500   -0.2330    0.7580 h1        1 MOL      0.046901
     75 H32        -0.6050   -1.2640    2.2750 h1        1 MOL      0.046901
     76 N7         -1.5150   -3.0460    0.8480 n         1 MOL     -0.214086
     77 C25        -1.6670   -4.3800    0.2210 c3        1 MOL     -0.019971
     78 C26        -2.2310   -4.2830   -1.1770 c         1 MOL      0.385018
     79 O14        -2.1230   -5.2840   -1.9150 o         1 MOL     -0.510809
     80 C27        -2.6750   -5.2030    1.0710 c3        1 MOL      0.192903
     81 C28        -1.9480   -5.6960    2.4140 c3        1 MOL     -0.440910
     82 C29        -1.7710   -4.4660    3.3720 c         1 MOL      0.537235
     83 N8         -2.8170   -4.0250    3.9420 n         1 MOL     -0.676857
     84 O15        -0.7390   -3.8570    3.6720 o         1 MOL     -0.445537
     85 H33        -2.2570   -2.7750    1.4830 hn        1 MOL      0.209901
     86 H34        -0.7070   -4.8830    0.1520 h1        1 MOL      0.149458
     87 H35        -2.9310   -6.0140    0.3910 hc        1 MOL     -0.044922
     88 H36        -3.5790   -4.6160    1.2550 hc        1 MOL     -0.044922
     89 H37        -1.0240   -6.2050    2.1420 hc        1 MOL      0.150120
     90 H38        -2.5500   -6.3970    2.9890 hc        1 MOL      0.150120
     91 H39        -3.7130   -4.4920    3.8620 hn        1 MOL      0.338445
     92 H40        -2.7650   -3.2300    4.5590 hn        1 MOL      0.338445
     93 N9         -2.7010   -3.1040   -1.5780 n         1 MOL     -0.140550
     94 C30        -3.2260   -2.9240   -2.9760 c3        1 MOL     -0.241196
     95 C31        -4.6440   -2.2490   -3.1220 c         1 MOL      0.626549
     96 O16        -5.0750   -1.8630   -4.1780 o         1 MOL     -0.544138
     97 C32        -2.1660   -2.0150   -3.7680 c3        1 MOL      0.122720
     98 C33        -0.8670   -2.8420   -3.8940 c3        1 MOL     -0.166842
     99 C34        -1.9300   -0.6120   -3.1980 c3        1 MOL     -0.166842
    100 H41        -2.9460   -2.4150   -0.8930 hn        1 MOL      0.145785
    101 H42        -3.2780   -3.8690   -3.5290 h1        1 MOL      0.147698
    102 H43        -2.5560   -1.8960   -4.7810 hc        1 MOL     -0.005089
    103 H44        -0.9410   -3.8340   -4.3250 hc        1 MOL      0.050162
    104 H45        -0.1420   -2.2470   -4.4350 hc        1 MOL      0.050162
    105 H46        -0.4270   -2.9560   -2.9060 hc        1 MOL      0.050162
    106 H47        -1.2240   -0.0580   -3.8170 hc        1 MOL      0.050162
    107 H48        -2.8930   -0.1010   -3.2280 hc        1 MOL      0.050162
    108 H49        -1.5580   -0.6730   -2.1780 hc        1 MOL      0.050162
    109 N10        -5.3170   -2.0100   -1.9880 n         1 MOL     -0.427894
    110 C35        -6.7050   -1.5530   -1.9410 c3        1 MOL      0.217198
    111 C36        -6.9220   -0.1420   -1.3230 c         1 MOL      0.450000
    112 O17        -8.0740    0.4010   -1.4230 o         1 MOL     -0.533953
    113 C37        -7.5100   -2.6140   -1.2570 c3        1 MOL     -0.285931
    114 C38        -7.2920   -3.9850   -1.9120 c         1 MOL      0.611441
    115 N11        -8.2470   -4.3910   -2.6880 n         1 MOL     -0.732545
    116 O18        -6.2380   -4.6430   -1.7630 o         1 MOL     -0.558419
    117 H50        -4.9150   -2.3950   -1.1480 hn        1 MOL      0.259352
    118 H51        -7.2010   -1.3870   -2.9030 h1        1 MOL      0.046536
    119 H52        -8.5400   -2.2890   -1.1100 hc        1 MOL      0.083660
    120 H53        -7.1770   -2.6460   -0.2130 hc        1 MOL      0.083660
    121 H54        -8.9890   -3.7660   -2.9830 hn        1 MOL      0.359954
    122 H55        -8.0900   -5.3220   -3.0410 hn        1 MOL      0.359954
    123 N12        -5.9570    0.3670   -0.5390 n         1 MOL     -0.533485
    124 C39        -5.9320    1.5410    0.3730 c3        1 MOL      0.554671
    125 C40        -4.6630    2.3340    0.4560 c         1 MOL      0.137434
    126 O19        -3.6080    1.9260    0.0690 o         1 MOL     -0.434991
    127 C41        -6.5520    1.2550    1.8080 c3        1 MOL     -0.047610
    128 C42        -8.0410    0.9240    1.6650 ca        1 MOL      0.062964
    129 C43        -8.9420    1.9850    1.5880 ca        1 MOL     -0.210277
    130 C44        -8.3900   -0.4000    1.6640 ca        1 MOL     -0.210277
    131 C45       -10.3100    1.5960    1.4360 ca        1 MOL     -0.204106
    132 C46        -9.7230   -0.7700    1.5100 ca        1 MOL     -0.204106
    133 C47       -10.7070    0.1980    1.4510 ca        1 MOL      0.289116
    134 O20       -11.9970   -0.2290    1.2910 oh        1 MOL     -0.503783
    135 H56        -5.2270   -0.3200   -0.4260 hn        1 MOL      0.226980
    136 H57        -6.6610    2.2770    0.0310 h1        1 MOL     -0.061710
    137 H58        -6.4750    2.1490    2.4330 hc        1 MOL      0.009535
    138 H59        -6.0450    0.3940    2.2350 hc        1 MOL      0.009535
    139 H60        -8.5450    2.9880    1.6020 ha        1 MOL      0.151807
    140 H61        -7.6850   -1.2200    1.6860 ha        1 MOL      0.151807
    141 H62       -10.9870    2.4290    1.4100 ha        1 MOL      0.119629
    142 H63        -9.9970   -1.7950    1.3060 ha        1 MOL      0.119629
    143 H64       -12.5620    0.5130    1.0720 ho        1 MOL      0.368469
    144 N13        -4.8780    3.5220    1.0000 n         1 MOL     -0.102231
    145 C48        -3.8840    4.6800    1.0330 c3        1 MOL     -0.296912
    146 C49        -2.9190    5.0470   -0.1060 c         1 MOL      0.382278
    147 O21        -2.7080    6.2150   -0.4000 o         1 MOL     -0.507763
    148 C50        -3.0410    4.5670    2.3220 c3        1 MOL      0.362027
    149 C51        -3.7760    4.2420    3.6310 c3        1 MOL     -0.427375
    150 C52        -2.8720    4.2180    4.8360 c         1 MOL      0.759810
    151 O22        -2.6370    5.2220    5.4640 o         1 MOL     -0.725694
    152 O23        -2.2720    3.1320    5.1000 o         1 MOL     -0.725694
    153 H65        -5.8020    3.8960    1.1170 hn        1 MOL      0.219757
    154 H66        -4.5870    5.5120    1.0990 h1        1 MOL      0.088837
    155 H67        -2.4750    5.4920    2.4210 hc        1 MOL      0.005041
    156 H68        -2.2270    3.8680    2.1240 hc        1 MOL      0.005041
    157 H69        -4.2190    3.2450    3.5710 hc        1 MOL      0.037013
    158 H70        -4.6330    4.8960    3.7630 hc        1 MOL      0.037013
    159 N14        -2.2970    4.0810   -0.7750 n         1 MOL     -0.085121
    160 C53        -1.2120    4.2770   -1.7100 c3        1 MOL     -0.243970
    161 C54        -1.7070    5.0400   -2.9310 c         1 MOL      0.515096
    162 O24        -0.8560    5.7410   -3.5780 o         1 MOL     -0.555348
    163 C55        -0.7440    2.8760   -2.2990 c3        1 MOL     -0.262708
    164 C56        -0.2690    1.9510   -1.2180 c3        1 MOL      0.356763
    165 C57         1.0700    2.3370   -0.5530 c         1 MOL      0.636870
    166 O25         1.9930    1.5350   -0.4880 o         1 MOL     -0.668517
    167 O26         1.1610    3.4230    0.0430 o         1 MOL     -0.668517
    168 H71        -2.4290    3.1180   -0.5050 hn        1 MOL      0.171881
    169 H72        -0.4100    4.8550   -1.2410 h1        1 MOL      0.203727
    170 H73         0.1200    3.0530   -2.9490 hc        1 MOL      0.072249
    171 H74        -1.4760    2.3760   -2.9330 hc        1 MOL      0.072249
    172 H75         0.0640    1.0880   -1.8090 hc        1 MOL     -0.085074
    173 H76        -0.9870    1.7030   -0.4480 hc        1 MOL     -0.085074
    174 N15        -3.0220    5.0750   -3.1910 n         1 MOL     -0.190922
    175 C58        -3.4960    5.9060   -4.3070 c3        1 MOL     -0.387480
    176 H77        -4.5000    5.5910   -4.5930 h1        1 MOL      0.134579
    177 H78        -3.5180    6.9510   -3.9990 h1        1 MOL      0.134579
    178 H79        -2.8240    5.7910   -5.1580 h1        1 MOL      0.134579
    179 H80        -3.6570    4.4960   -2.6570 hn        1 MOL      0.209166
    180 Ca1         3.9980    2.0340    0.9810 Ca        1 MOL      1.811584
    181 O27         3.3870    2.0930    3.6520 oh        1 MOL     -0.888406
    182 H81         3.7610    2.7930    4.1950 ho        1 MOL      0.421047
    183 H82         2.7880    1.6250    4.2320 ho        1 MOL      0.421047
    184 O28         5.6960    0.5900    2.5490 oh        1 MOL     -0.888406
    185 H83         5.2040    0.1390    3.2370 ho        1 MOL      0.421047
    186 H84         6.5140    0.0950    2.4800 ho        1 MOL      0.421047
    187 O29         3.8500    4.4780    2.1080 oh        1 MOL     -0.888406
    188 H85         3.6440    5.2070    2.6870 ho        1 MOL      0.421047
    189 H86         4.6200    4.7630    1.6260 ho        1 MOL      0.421047
@<TRIPOS>BOND
     1    1    2 1   
     2    1    4 1   
     3    1    5 1   
     4    1    6 1   
     5    2    3 2   
     6    2    7 1   
     7    7    8 1   
     8    7   15 1   
     9    8    9 1   
    10    8   11 1   
    11    8   16 1   
    12    9   10 2   
    13    9   19 1   
    14   11   12 1   
    15   11   17 1   
    16   11   18 1   
    17   12   13 1   
    18   12   14 1   
    19   19   20 1   
    20   19   27 1   
    21   20   21 1   
    22   20   23 1   
    23   20   28 1   
    24   21   22 2   
    25   21   38 1   
    26   23   24 1   
    27   23   25 1   
    28   23   29 1   
    29   24   26 1   
    30   24   30 1   
    31   24   31 1   
    32   25   32 1   
    33   25   33 1   
    34   25   34 1   
    35   26   35 1   
    36   26   36 1   
    37   26   37 1   
    38   38   39 1   
    39   38   46 1   
    40   39   40 1   
    41   39   42 1   
    42   39   47 1   
    43   40   41 2   
    44   40   50 1   
    45   42   43 1   
    46   42   48 1   
    47   42   49 1   
    48   43   44 1   
    49   43   45 1   
    50   50   51 1   
    51   50   54 1   
    52   51   52 1   
    53   51   55 1   
    54   51   56 1   
    55   52   53 2   
    56   52   57 1   
    57   57   58 1   
    58   57   65 1   
    59   58   59 1   
    60   58   61 1   
    61   58   66 1   
    62   59   60 2   
    63   59   69 1   
    64   61   62 1   
    65   61   67 1   
    66   61   68 1   
    67   62   63 1   
    68   62   64 1   
    69   69   70 1   
    70   69   73 1   
    71   70   71 1   
    72   70   74 1   
    73   70   75 1   
    74   71   72 2   
    75   71   76 1   
    76   76   77 1   
    77   76   85 1   
    78   77   78 1   
    79   77   80 1   
    80   77   86 1   
    81   78   79 2   
    82   78   93 1   
    83   80   81 1   
    84   80   87 1   
    85   80   88 1   
    86   81   82 1   
    87   81   89 1   
    88   81   90 1   
    89   82   83 1   
    90   82   84 2   
    91   83   91 1   
    92   83   92 1   
    93   93   94 1   
    94   93  100 1   
    95   94   95 1   
    96   94   97 1   
    97   94  101 1   
    98   95   96 2   
    99   95  109 1   
   100   97   98 1   
   101   97   99 1   
   102   97  102 1   
   103   98  103 1   
   104   98  104 1   
   105   98  105 1   
   106   99  106 1   
   107   99  107 1   
   108   99  108 1   
   109  109  110 1   
   110  109  117 1   
   111  110  111 1   
   112  110  113 1   
   113  110  118 1   
   114  111  112 2   
   115  111  123 1   
   116  113  114 1   
   117  113  119 1   
   118  113  120 1   
   119  114  115 1   
   120  114  116 2   
   121  115  121 1   
   122  115  122 1   
   123  123  124 1   
   124  123  135 1   
   125  124  125 1   
   126  124  127 1   
   127  124  136 1   
   128  125  126 2   
   129  125  144 1   
   130  127  128 1   
   131  127  137 1   
   132  127  138 1   
   133  128  129 ar  
   134  128  130 ar  
   135  129  131 ar  
   136  129  139 1   
   137  130  132 ar  
   138  130  140 1   
   139  131  133 ar  
   140  131  141 1   
   141  132  133 ar  
   142  132  142 1   
   143  133  134 1   
   144  134  143 1   
   145  144  145 1   
   146  144  153 1   
   147  145  146 1   
   148  145  148 1   
   149  145  154 1   
   150  146  147 2   
   151  146  159 1   
   152  148  149 1   
   153  148  155 1   
   154  148  156 1   
   155  149  150 1   
   156  149  157 1   
   157  149  158 1   
   158  150  151 1   
   159  150  152 1   
   160  159  160 1   
   161  159  168 1   
   162  160  161 1   
   163  160  163 1   
   164  160  169 1   
   165  161  162 2   
   166  161  174 1   
   167  163  164 1   
   168  163  170 1   
   169  163  171 1   
   170  164  165 1   
   171  164  172 1   
   172  164  173 1   
   173  165  166 1   
   174  165  167 1   
   175  174  175 1   
   176  174  179 1   
   177  175  176 1   
   178  175  177 1   
   179  175  178 1   
   180  181  182 1   
   181  181  183 1   
   182  184  185 1   
   183  184  186 1   
   184  187  188 1   
   185  187  189 1   
@<TRIPOS>SUBSTRUCTURE
     1 MOL         1 TEMP              0 ****  ****    0 ROOT
