@<TRIPOS>MOLECULE
MOL
  195   189     1     0     0
SMALL
resp


@<TRIPOS>ATOM
      1 C1         -5.8570   -2.4580    5.8910 c3        1 MOL     -0.349698
      2 C2         -5.3820   -2.0380    4.4670 c         1 MOL      0.756781
      3 O1         -5.3730   -2.8330    3.5540 o         1 MOL     -0.605015
      4 H1         -5.8740   -3.5460    5.9620 hc        1 MOL      0.082966
      5 H2         -5.1720   -2.0560    6.6370 hc        1 MOL      0.082966
      6 H3         -6.8590   -2.0680    6.0690 hc        1 MOL      0.082966
      7 N1         -5.0430   -0.7990    4.2800 n         1 MOL     -0.533153
      8 C3         -4.8700   -0.2060    2.9810 c3        1 MOL      0.167029
      9 C4         -3.4830   -0.2960    2.3300 c         1 MOL      0.330965
     10 O2         -3.1700    0.3630    1.2940 o         1 MOL     -0.402277
     11 C5         -5.3970    1.2650    2.9710 c3        1 MOL     -0.136760
     12 C6         -6.7700    1.5220    3.5580 c         1 MOL      0.697198
     13 O3         -7.6500    1.9650    2.7820 o         1 MOL     -0.691192
     14 O4         -6.9160    1.4070    4.7970 o         1 MOL     -0.691192
     15 H4         -5.1040   -0.2330    5.1120 hn        1 MOL      0.240756
     16 H5         -5.6030   -0.6520    2.3040 h1        1 MOL      0.134196
     17 H6         -5.4420    1.6120    1.9450 hc        1 MOL      0.011965
     18 H7         -4.6190    1.9260    3.3480 hc        1 MOL      0.011965
     19 N2         -2.5560   -1.0180    3.0130 n         1 MOL     -0.210242
     20 C7         -1.0900   -1.0130    2.7810 c3        1 MOL      0.212853
     21 C8         -0.6760   -2.3770    2.1790 c         1 MOL      0.476699
     22 O5         -1.1370   -3.4130    2.6520 o         1 MOL     -0.523262
     23 C9         -0.3650   -0.7740    4.1320 c3        1 MOL     -0.488135
     24 C10        -0.3620    0.6720    4.5800 c3        1 MOL      0.293827
     25 C11         0.2300    0.9020    5.9120 c3        1 MOL      0.063115
     26 C12         0.5330    2.4190    6.0250 c3        1 MOL     -0.066796
     27 N3          0.7220    2.7850    7.4290 n4        1 MOL     -0.469291
     28 H8         -2.8640   -1.6070    3.7720 hn        1 MOL      0.187647
     29 H9         -0.7900   -0.2270    2.0860 h1        1 MOL      0.069171
     30 H10         0.6740   -1.0450    3.9640 hc        1 MOL      0.126969
     31 H11        -0.8720   -1.4440    4.8350 hc        1 MOL      0.126969
     32 H12        -1.4020    0.9810    4.4740 hc        1 MOL     -0.063477
     33 H13         0.1530    1.2940    3.8420 hc        1 MOL     -0.063477
     34 H14         1.1130    0.2740    6.0290 hc        1 MOL     -0.002712
     35 H15        -0.6000    0.5430    6.5170 hc        1 MOL     -0.002712
     36 H16        -0.3810    2.8580    5.6130 hx        1 MOL      0.142277
     37 H17         1.4660    2.5280    5.4720 hx        1 MOL      0.142277
     38 H18         0.8210    3.7810    7.5100 hn        1 MOL      0.347156
     39 H19        -0.0670    2.5090    8.0160 hn        1 MOL      0.347156
     40 H20         1.6120    2.4220    7.7500 hn        1 MOL      0.347156
     41 N4          0.2310   -2.4240    1.1490 n         1 MOL     -0.178500
     42 C13         0.9820   -1.3650    0.3940 c3        1 MOL     -0.317477
     43 C14         1.7530   -0.4100    1.3430 c         1 MOL      0.538577
     44 O6          1.5550    0.7030    1.3130 o         1 MOL     -0.482634
     45 C15         0.1280   -0.5980   -0.6070 c3        1 MOL     -0.174984
     46 C16        -0.5380   -1.4340   -1.6930 c         1 MOL      0.656305
     47 O7         -0.4740   -2.6500   -1.6000 o         1 MOL     -0.695539
     48 O8         -1.1410   -0.8220   -2.6150 o         1 MOL     -0.695539
     49 H21         0.2180   -3.3450    0.7340 hn        1 MOL      0.112322
     50 H22         1.7590   -1.9230   -0.1230 h1        1 MOL      0.191851
     51 H23         0.7830    0.0970   -1.1330 hc        1 MOL      0.102105
     52 H24        -0.5940   -0.0090   -0.0510 hc        1 MOL      0.102105
     53 N5          2.6760   -0.8960    2.1410 n         1 MOL     -0.513838
     54 C17         3.0910   -2.3400    2.2010 c3        1 MOL      0.104540
     55 C18         4.5340   -2.5710    2.7530 c         1 MOL      0.396686
     56 O9          4.9870   -2.0530    3.7550 o         1 MOL     -0.538621
     57 H25         3.1140   -0.2880    2.8120 hn        1 MOL      0.318953
     58 H26         3.0560   -2.7870    1.2080 h1        1 MOL      0.031050
     59 H27         2.3510   -2.8310    2.8380 h1        1 MOL      0.031050
     60 N6          5.3630   -3.3730    2.1310 n         1 MOL     -0.221894
     61 C19         5.0320   -4.3120    0.9640 c3        1 MOL      0.007132
     62 C20         5.4000   -3.6350   -0.3620 c         1 MOL      0.607705
     63 O10         4.6480   -3.6400   -1.3100 o         1 MOL     -0.630689
     64 C21         5.6490   -5.7550    1.0480 c3        1 MOL     -0.326097
     65 C22         7.0170   -5.9170    1.7900 c         1 MOL      0.710679
     66 O11         7.6540   -4.9200    2.1770 o         1 MOL     -0.673975
     67 O12         7.5290   -7.0340    1.9680 o         1 MOL     -0.673975
     68 H28         6.2950   -3.4940    2.4850 hn        1 MOL      0.225410
     69 H29         3.9570   -4.5000    0.9250 h1        1 MOL      0.034156
     70 H30         5.7310   -6.0550    0.0080 hc        1 MOL      0.077801
     71 H31         4.9700   -6.4930    1.4720 hc        1 MOL      0.077801
     72 N7          6.5710   -2.9580   -0.3410 n         1 MOL     -0.314529
     73 C23         7.2780   -2.2930   -1.4000 c3        1 MOL     -0.061223
     74 C24         6.6490   -1.0730   -2.0540 c         1 MOL      0.479548
     75 O13         6.6830   -0.8670   -3.2800 o         1 MOL     -0.550305
     76 H32         7.0880   -2.9140    0.5260 hn        1 MOL      0.231770
     77 H33         7.3400   -2.9770   -2.2410 h1        1 MOL      0.092529
     78 H34         8.3010   -2.1350   -1.0750 h1        1 MOL      0.092529
     79 N8          5.9830   -0.2530   -1.2700 n         1 MOL     -0.388344
     80 C25         5.0910    0.8890   -1.7150 c3        1 MOL     -0.092618
     81 C26         5.1150    2.0220   -0.6480 c         1 MOL      0.610138
     82 O14         4.7930    1.7660    0.5260 o         1 MOL     -0.532774
     83 C27         3.6290    0.5170   -2.1150 c3        1 MOL      0.467756
     84 C28         3.5060   -0.4820   -3.2760 c3        1 MOL     -0.516951
     85 O15         3.0830    1.7740   -2.5550 oh        1 MOL     -0.639747
     86 H35         6.0000   -0.4930   -0.2950 hn        1 MOL      0.218992
     87 H36         5.5710    1.3030   -2.5950 h1        1 MOL      0.120405
     88 H37         3.1340    0.0340   -1.2710 h1        1 MOL      0.011934
     89 H38         2.2060    1.8690   -2.1810 ho        1 MOL      0.376332
     90 H39         2.4520   -0.5320   -3.5560 hc        1 MOL      0.149089
     91 H40         4.1830   -0.1900   -4.0780 hc        1 MOL      0.149089
     92 H41         3.7370   -1.4920   -2.9410 hc        1 MOL      0.149089
     93 N9          5.3220    3.2580   -1.0720 n         1 MOL     -0.554053
     94 C29         5.3250    4.4790   -0.2090 c3        1 MOL     -0.070850
     95 C30         4.0130    5.2440   -0.2280 c         1 MOL      0.402992
     96 O16         3.8270    6.1590    0.5290 o         1 MOL     -0.535528
     97 C31         6.5510    5.4630   -0.5090 c3        1 MOL      0.145092
     98 C32         7.8430    4.6800   -0.8690 c3        1 MOL     -0.019449
     99 C33         6.8660    6.4120    0.6640 c3        1 MOL     -0.168580
    100 C34         8.4310    3.7260    0.1990 c3        1 MOL     -0.230764
    101 H42         5.4010    3.3700   -2.0780 hn        1 MOL      0.331467
    102 H43         5.5430    4.2350    0.8310 h1        1 MOL      0.153245
    103 H44         6.3380    6.0730   -1.3810 hc        1 MOL     -0.007261
    104 H45         8.5790    5.4650   -1.0300 hc        1 MOL      0.019590
    105 H46         7.7540    4.2180   -1.8550 hc        1 MOL      0.019590
    106 H47         6.1720    7.2450    0.7840 hc        1 MOL      0.046079
    107 H48         6.7050    5.9610    1.6510 hc        1 MOL      0.046079
    108 H49         7.8160    6.9410    0.6060 hc        1 MOL      0.046079
    109 H50         9.5130    3.6690    0.0050 hc        1 MOL      0.062863
    110 H51         8.2680    4.1680    1.1860 hc        1 MOL      0.062863
    111 H52         7.8620    2.7950    0.3210 hc        1 MOL      0.062863
    112 N10         3.1110    4.9210   -1.1140 n         1 MOL      0.019006
    113 C35         1.6910    5.3570   -1.1030 c3        1 MOL     -0.114691
    114 C36         0.7790    4.2040   -0.8350 c         1 MOL      0.603154
    115 O17         0.9470    3.0940   -1.3870 o         1 MOL     -0.508256
    116 C37         1.2560    5.9340   -2.4560 c3        1 MOL      0.274867
    117 C38         1.7120    5.1300   -3.6990 c3        1 MOL     -0.247158
    118 O18         1.7350    7.2310   -2.5810 oh        1 MOL     -0.583633
    119 H53         3.2270    4.0670   -1.6520 hn        1 MOL      0.075426
    120 H54         1.4660    6.0930   -0.3320 h1        1 MOL      0.080805
    121 H55         0.1740    5.9690   -2.5410 h1        1 MOL      0.018915
    122 H56         0.9910    7.5650   -3.0950 ho        1 MOL      0.366375
    123 H57         2.7580    5.3460   -3.9000 hc        1 MOL      0.064312
    124 H58         1.4520    4.0730   -3.5550 hc        1 MOL      0.064312
    125 H59         1.0700    5.3990   -4.5450 hc        1 MOL      0.064312
    126 N11        -0.2430    4.4450   -0.0050 n         1 MOL     -0.601215
    127 C39        -1.2330    3.3490    0.2920 c3        1 MOL      0.187283
    128 C40        -2.4100    3.4300   -0.6350 c         1 MOL      0.415181
    129 O19        -2.6580    4.4600   -1.2970 o         1 MOL     -0.584082
    130 C41        -1.6460    3.3760    1.8100 c3        1 MOL      0.473719
    131 C42        -2.7270    4.3090    2.2830 c3        1 MOL     -0.251889
    132 O20        -0.4630    3.5870    2.5800 oh        1 MOL     -0.652076
    133 H60        -0.4090    5.3850    0.3130 hn        1 MOL      0.327278
    134 H61        -0.7830    2.3670    0.2020 h1        1 MOL      0.115619
    135 H62        -2.0480    2.4070    2.1310 h1        1 MOL     -0.044080
    136 H63        -0.6740    4.1910    3.2930 ho        1 MOL      0.333178
    137 H64        -3.0220    4.1360    3.3260 hc        1 MOL      0.050275
    138 H65        -2.2740    5.2910    2.2290 hc        1 MOL      0.050275
    139 H66        -3.6170    4.2510    1.6540 hc        1 MOL      0.050275
    140 N12        -3.0630    2.3050   -0.8830 n         1 MOL     -0.132184
    141 C43        -4.1180    2.1410   -1.8870 c3        1 MOL     -0.034602
    142 C44        -4.3950    0.6000   -2.2010 c         1 MOL      0.325864
    143 O21        -4.6850    0.2460   -3.3190 o         1 MOL     -0.565570
    144 C45        -5.3790    2.8180   -1.3290 c3        1 MOL     -0.011672
    145 C46        -6.6000    2.9010   -2.2470 c3        1 MOL     -0.170921
    146 C47        -6.3220    3.6870   -3.5270 c3        1 MOL     -0.156629
    147 C48        -7.5160    3.2790   -4.4510 c3        1 MOL      0.062392
    148 N13        -7.4230    3.7820   -5.8630 n4        1 MOL     -0.401809
    149 H67        -2.6850    1.4940   -0.4210 hn        1 MOL     -0.111765
    150 H68        -3.7240    2.5440   -2.8160 h1        1 MOL      0.108688
    151 H69        -5.0720    3.8440   -1.1120 hc        1 MOL      0.079415
    152 H70        -5.8180    2.4090   -0.4140 hc        1 MOL      0.079415
    153 H71        -7.3850    3.4640   -1.7270 hc        1 MOL      0.078200
    154 H72        -6.8890    1.8790   -2.4870 hc        1 MOL      0.078200
    155 H73        -5.3760    3.4060   -3.9840 hc        1 MOL      0.078050
    156 H74        -6.2230    4.7460   -3.3030 hc        1 MOL      0.078050
    157 H75        -8.5430    3.5120   -4.1490 hx        1 MOL      0.093071
    158 H76        -7.5430    2.1970   -4.4960 hx        1 MOL      0.093071
    159 H77        -8.1920    3.3430   -6.3420 hn        1 MOL      0.332429
    160 H78        -7.4900    4.7850   -5.8530 hn        1 MOL      0.332429
    161 H79        -6.5450    3.6570   -6.3610 hn        1 MOL      0.332429
    162 N14        -4.0670   -0.2260   -1.2280 n         1 MOL      0.797197
    163 C49        -4.5220   -1.6400   -1.2220 c3        1 MOL     -1.096676
    164 C50        -6.0170   -1.7120   -1.0650 c         1 MOL      0.684857
    165 O22        -6.5640   -0.9540   -0.2890 o         1 MOL     -0.552073
    166 C51        -3.7480   -2.4290   -0.1370 c3        1 MOL      1.219093
    167 C52        -3.9360   -3.9830   -0.2410 c3        1 MOL     -0.825315
    168 C53        -3.7680   -4.5040   -1.7120 c         1 MOL      1.043230
    169 O23        -4.7000   -4.3700   -2.5050 o         1 MOL     -0.820318
    170 O24        -2.7270   -5.1320   -1.9730 o         1 MOL     -0.820318
    171 H80        -3.8720    0.0930   -0.2900 hn        1 MOL     -0.257553
    172 H81        -4.2910   -2.0800   -2.1910 h1        1 MOL      0.176081
    173 H82        -3.8860   -2.1160    0.8960 hc        1 MOL     -0.283582
    174 H83        -2.6760   -2.4300   -0.3470 hc        1 MOL     -0.283582
    175 H84        -4.9390   -4.2250    0.1230 hc        1 MOL      0.169415
    176 H85        -3.2050   -4.4490    0.4210 hc        1 MOL      0.169415
    177 N15        -6.7530   -2.6240   -1.7050 n         1 MOL     -0.423433
    178 C54        -8.2240   -2.9550   -1.6720 c3        1 MOL     -0.085947
    179 H86        -8.3640   -3.9410   -1.2290 h1        1 MOL      0.067776
    180 H87        -8.7510   -2.2110   -1.0760 h1        1 MOL      0.067776
    181 H88        -8.6200   -2.9540   -2.6880 h1        1 MOL      0.067776
    182 H89        -6.2460   -3.2480   -2.3330 hn        1 MOL      0.387475
    183 Ca1        -0.2480   -4.9140   -2.5840 Ca        1 MOL      1.784330
    184 O25         2.2410   -4.0030   -2.4860 oh        1 MOL     -0.923638
    185 H90         2.4670   -4.5010   -3.2690 ho        1 MOL      0.455471
    186 H91         3.0680   -3.8720   -2.0240 ho        1 MOL      0.455471
    187 O26        -1.6140   -6.9440   -3.8010 oh        1 MOL     -0.923638
    188 H92        -1.7660   -7.0400   -4.7420 ho        1 MOL      0.455471
    189 H93        -2.0190   -7.7300   -3.4100 ho        1 MOL      0.455471
    190 O27         1.3290   -4.9630   -4.7440 oh        1 MOL     -0.923638
    191 H94         1.2190   -4.2290   -5.3520 ho        1 MOL      0.455471
    192 H95         1.3830   -5.7390   -5.3130 ho        1 MOL      0.455471
    193 O28        -1.8330   -3.8870   -4.5630 oh        1 MOL     -0.923638
    194 H96        -2.7540   -4.0550   -4.3320 ho        1 MOL      0.455471
    195 H97        -1.8710   -3.2020   -5.2300 ho        1 MOL      0.455471
@<TRIPOS>BOND
     1    1    2 1   
     2    1    4 1   
     3    1    5 1   
     4    1    6 1   
     5    2    3 2   
     6    2    7 1   
     7    7    8 1   
     8    7   15 1   
     9    8    9 1   
    10    8   11 1   
    11    8   16 1   
    12    9   10 2   
    13    9   19 1   
    14   11   12 1   
    15   11   17 1   
    16   11   18 1   
    17   12   13 1   
    18   12   14 1   
    19   19   20 1   
    20   19   28 1   
    21   20   21 1   
    22   20   23 1   
    23   20   29 1   
    24   21   22 2   
    25   21   41 1   
    26   23   24 1   
    27   23   30 1   
    28   23   31 1   
    29   24   25 1   
    30   24   32 1   
    31   24   33 1   
    32   25   26 1   
    33   25   34 1   
    34   25   35 1   
    35   26   27 1   
    36   26   36 1   
    37   26   37 1   
    38   27   38 1   
    39   27   39 1   
    40   27   40 1   
    41   41   42 1   
    42   41   49 1   
    43   42   43 1   
    44   42   45 1   
    45   42   50 1   
    46   43   44 2   
    47   43   53 1   
    48   45   46 1   
    49   45   51 1   
    50   45   52 1   
    51   46   47 1   
    52   46   48 1   
    53   53   54 1   
    54   53   57 1   
    55   54   55 1   
    56   54   58 1   
    57   54   59 1   
    58   55   56 2   
    59   55   60 1   
    60   60   61 1   
    61   60   68 1   
    62   61   62 1   
    63   61   64 1   
    64   61   69 1   
    65   62   63 2   
    66   62   72 1   
    67   64   65 1   
    68   64   70 1   
    69   64   71 1   
    70   65   66 1   
    71   65   67 1   
    72   72   73 1   
    73   72   76 1   
    74   73   74 1   
    75   73   77 1   
    76   73   78 1   
    77   74   75 2   
    78   74   79 1   
    79   79   80 1   
    80   79   86 1   
    81   80   81 1   
    82   80   83 1   
    83   80   87 1   
    84   81   82 2   
    85   81   93 1   
    86   83   84 1   
    87   83   85 1   
    88   83   88 1   
    89   84   90 1   
    90   84   91 1   
    91   84   92 1   
    92   85   89 1   
    93   93   94 1   
    94   93  101 1   
    95   94   95 1   
    96   94   97 1   
    97   94  102 1   
    98   95   96 2   
    99   95  112 1   
   100   97   98 1   
   101   97   99 1   
   102   97  103 1   
   103   98  100 1   
   104   98  104 1   
   105   98  105 1   
   106   99  106 1   
   107   99  107 1   
   108   99  108 1   
   109  100  109 1   
   110  100  110 1   
   111  100  111 1   
   112  112  113 1   
   113  112  119 1   
   114  113  114 1   
   115  113  116 1   
   116  113  120 1   
   117  114  115 2   
   118  114  126 1   
   119  116  117 1   
   120  116  118 1   
   121  116  121 1   
   122  117  123 1   
   123  117  124 1   
   124  117  125 1   
   125  118  122 1   
   126  126  127 1   
   127  126  133 1   
   128  127  128 1   
   129  127  130 1   
   130  127  134 1   
   131  128  129 2   
   132  128  140 1   
   133  130  131 1   
   134  130  132 1   
   135  130  135 1   
   136  131  137 1   
   137  131  138 1   
   138  131  139 1   
   139  132  136 1   
   140  140  141 1   
   141  140  149 1   
   142  141  142 1   
   143  141  144 1   
   144  141  150 1   
   145  142  143 2   
   146  142  162 1   
   147  144  145 1   
   148  144  151 1   
   149  144  152 1   
   150  145  146 1   
   151  145  153 1   
   152  145  154 1   
   153  146  147 1   
   154  146  155 1   
   155  146  156 1   
   156  147  148 1   
   157  147  157 1   
   158  147  158 1   
   159  148  159 1   
   160  148  160 1   
   161  148  161 1   
   162  162  163 1   
   163  162  171 1   
   164  163  164 1   
   165  163  166 1   
   166  163  172 1   
   167  164  165 2   
   168  164  177 1   
   169  166  167 1   
   170  166  173 1   
   171  166  174 1   
   172  167  168 1   
   173  167  175 1   
   174  167  176 1   
   175  168  169 1   
   176  168  170 1   
   177  177  178 1   
   178  177  182 1   
   179  178  179 1   
   180  178  180 1   
   181  178  181 1   
   182  184  185 1   
   183  184  186 1   
   184  187  188 1   
   185  187  189 1   
   186  190  191 1   
   187  190  192 1   
   188  193  194 1   
   189  193  195 1   
@<TRIPOS>SUBSTRUCTURE
     1 MOL         1 TEMP              0 ****  ****    0 ROOT
