@<TRIPOS>MOLECULE
MOL
  189   185     1     0     0
SMALL
resp


@<TRIPOS>ATOM
      1 C1          4.8950    5.2040   -3.1180 c3        1 MOL     -0.242492
      2 C2          5.2050    3.9610   -2.1920 c         1 MOL      0.650451
      3 O1          4.3460    3.6240   -1.3290 o         1 MOL     -0.590344
      4 H1          5.6200    5.9940   -2.9200 hc        1 MOL      0.062560
      5 H2          4.9630    4.9050   -4.1640 hc        1 MOL      0.062560
      6 H3          3.8910    5.5730   -2.9100 hc        1 MOL      0.062560
      7 N1          6.3830    3.3530   -2.3420 n         1 MOL     -0.546959
      8 C3          6.8210    2.0040   -1.9540 c3        1 MOL      0.134199
      9 C4          5.6800    0.9300   -1.8370 c         1 MOL      0.048626
     10 O2          5.1300    0.7570   -0.7190 o         1 MOL     -0.559121
     11 C5          7.8580    1.9450   -0.7980 c3        1 MOL      0.059826
     12 C6          7.4920    2.8250    0.4460 c         1 MOL      0.582461
     13 O3          6.2780    3.1670    0.6620 o         1 MOL     -0.668664
     14 O4          8.4660    3.1370    1.1380 o         1 MOL     -0.668664
     15 H4          7.1080    3.8470   -2.8340 hn        1 MOL      0.321331
     16 H5          7.4810    1.8060   -2.7970 h1        1 MOL      0.009946
     17 H6          8.7660    2.3010   -1.2990 hc        1 MOL     -0.005002
     18 H7          8.0720    0.9230   -0.5120 hc        1 MOL     -0.005002
     19 N2          5.4960    0.2950   -2.9530 n         1 MOL     -0.247265
     20 C7          4.7490   -0.9760   -3.1340 c3        1 MOL     -0.110874
     21 C8          5.3750   -2.1700   -2.4650 c         1 MOL      0.262647
     22 O5          5.7070   -3.1830   -3.1520 o         1 MOL     -0.505289
     23 C9          3.2930   -0.6980   -2.8280 c3        1 MOL      0.627632
     24 C10         2.3690   -1.9120   -3.2020 c3        1 MOL     -0.229062
     25 C11         2.7610    0.6570   -3.4210 c3        1 MOL     -0.529515
     26 C12         2.4840   -2.3890   -4.6870 c3        1 MOL     -0.129352
     27 H8          5.7980    0.8600   -3.7370 hn        1 MOL      0.283631
     28 H9          4.7220   -1.0220   -4.2270 h1        1 MOL      0.058381
     29 H10         3.0790   -0.6290   -1.7650 hc        1 MOL     -0.167354
     30 H11         1.3480   -1.5480   -3.1020 hc        1 MOL      0.109884
     31 H12         2.5160   -2.7400   -2.5060 hc        1 MOL      0.109884
     32 H13         1.7820    0.8770   -2.9820 hc        1 MOL      0.111539
     33 H14         3.3640    1.5150   -3.1200 hc        1 MOL      0.111539
     34 H15         2.6950    0.5800   -4.5110 hc        1 MOL      0.111539
     35 H16         3.2060   -3.1870   -4.8410 hc        1 MOL      0.020875
     36 H17         1.5520   -2.8770   -4.9570 hc        1 MOL      0.020875
     37 H18         2.6900   -1.6320   -5.4550 hc        1 MOL      0.020875
     38 N3          5.7960   -2.1190   -1.1990 n         1 MOL      0.207187
     39 C13         6.5720   -3.1950   -0.5770 c3        1 MOL     -0.574848
     40 C14         5.7290   -4.4090   -0.3050 c         1 MOL      0.682284
     41 O6          6.1050   -5.4720   -0.7240 o         1 MOL     -0.577855
     42 C15         7.1210   -2.5130    0.6360 c3        1 MOL     -0.192270
     43 C16         7.9770   -3.4450    1.4660 c         1 MOL      0.754748
     44 O7          7.9070   -3.2110    2.6360 o         1 MOL     -0.704332
     45 O8          8.8580   -4.2580    1.0470 o         1 MOL     -0.704332
     46 H19         5.8030   -1.2240   -0.7300 hn        1 MOL      0.249108
     47 H20         7.4170   -3.4400   -1.2290 h1        1 MOL      0.179972
     48 H21         6.4400   -1.9090    1.2340 hc        1 MOL      0.093208
     49 H22         7.7930   -1.6960    0.3500 hc        1 MOL      0.093208
     50 N4          4.6570   -4.4670    0.4620 n         1 MOL     -0.374627
     51 C17         3.8480   -3.4940    1.0570 c3        1 MOL      0.182238
     52 C18         2.8210   -4.0950    2.0130 c         1 MOL      0.728490
     53 O9          2.5510   -5.3100    1.8920 o         1 MOL     -0.609638
     54 H23         4.2840   -5.3990    0.5580 hn        1 MOL      0.215082
     55 H24         3.4680   -2.8830    0.2460 h1        1 MOL     -0.035658
     56 H25         4.5180   -2.8110    1.5900 h1        1 MOL     -0.035658
     57 N5          2.1580   -3.3180    2.9060 n         1 MOL     -0.523349
     58 C19         2.3290   -1.8890    3.1730 c3        1 MOL     -0.001894
     59 C20         2.3210   -0.8650    2.0180 c         1 MOL      0.756105
     60 O10         3.2470    0.0050    1.9060 o         1 MOL     -0.712415
     61 C21         3.4950   -1.6230    4.1480 c3        1 MOL     -0.290102
     62 C22         3.6160   -2.6450    5.2060 c         1 MOL      0.640277
     63 O11         2.6580   -2.9480    6.0220 o         1 MOL     -0.698524
     64 O12         4.7720   -3.0720    5.3380 o         1 MOL     -0.698524
     65 H26         1.3740   -3.7680    3.3510 hn        1 MOL      0.283414
     66 H27         1.4360   -1.6150    3.7290 h1        1 MOL      0.048723
     67 H28         3.3190   -0.6930    4.6980 hc        1 MOL      0.128493
     68 H29         4.4600   -1.6170    3.6550 hc        1 MOL      0.128493
     69 N6          1.4210   -0.9330    1.0610 n         1 MOL     -0.551878
     70 C23         0.0620   -1.5390    1.0810 c3        1 MOL     -0.468062
     71 C24        -0.0370   -2.6910    0.1940 c         1 MOL      0.606804
     72 O13         0.9020   -3.0380   -0.4840 o         1 MOL     -0.508660
     73 H30         1.5300   -0.2880    0.2920 hn        1 MOL      0.455650
     74 H31        -0.5130   -0.7210    0.6450 h1        1 MOL      0.219823
     75 H32        -0.2030   -1.8070    2.1070 h1        1 MOL      0.219823
     76 N7         -1.2440   -3.3370    0.1930 n         1 MOL     -0.423927
     77 C25        -1.6320   -4.4510   -0.7580 c3        1 MOL     -0.069008
     78 C26        -2.3250   -3.9650   -2.0280 c         1 MOL      0.455537
     79 O14        -2.5310   -4.7590   -2.9370 o         1 MOL     -0.526820
     80 C27        -2.4820   -5.5120    0.0010 c3        1 MOL      0.263416
     81 C28        -3.4950   -5.0450    1.0770 c3        1 MOL     -0.265346
     82 C29        -4.6830   -4.4190    0.5400 c         1 MOL      0.650479
     83 N8         -5.7650   -5.1550    0.4320 n         1 MOL     -0.638976
     84 O15        -4.7050   -3.2600    0.0950 o         1 MOL     -0.568250
     85 H33        -1.9500   -3.0100    0.8400 hn        1 MOL      0.223294
     86 H34        -0.7600   -5.0460   -1.0190 h1        1 MOL      0.148139
     87 H35        -1.8290   -6.2580    0.4430 hc        1 MOL     -0.039719
     88 H36        -3.0580   -6.1010   -0.7090 hc        1 MOL     -0.039719
     89 H37        -3.0300   -4.3660    1.7940 hc        1 MOL      0.071492
     90 H38        -3.8030   -5.9250    1.6430 hc        1 MOL      0.071492
     91 H39        -5.8040   -6.1060    0.7630 hn        1 MOL      0.325002
     92 H40        -6.4450   -4.7610   -0.1950 hn        1 MOL      0.325002
     93 N9         -2.7500   -2.6930   -2.0960 n         1 MOL     -0.271673
     94 C30        -3.2690   -2.0090   -3.3320 c3        1 MOL     -0.155645
     95 C31        -4.6690   -1.2970   -3.2100 c         1 MOL      0.650367
     96 O16        -5.0860   -0.8850   -4.2730 o         1 MOL     -0.585673
     97 C32        -2.2200   -1.2130   -4.1670 c3        1 MOL      0.261774
     98 C33        -1.1600   -2.0550   -4.8890 c3        1 MOL     -0.308421
     99 C34        -1.6280   -0.0240   -3.3980 c3        1 MOL     -0.308421
    100 H41        -2.8270   -2.1980   -1.2150 hn        1 MOL      0.193712
    101 H42        -3.6130   -2.8540   -3.9380 h1        1 MOL      0.108179
    102 H43        -2.7020   -0.8350   -5.0680 hc        1 MOL      0.007124
    103 H44        -1.6040   -2.4900   -5.7830 hc        1 MOL      0.073215
    104 H45        -0.3070   -1.4180   -5.1000 hc        1 MOL      0.073215
    105 H46        -0.8770   -2.9450   -4.3230 hc        1 MOL      0.073215
    106 H47        -2.4520    0.6260   -3.1010 hc        1 MOL      0.073215
    107 H48        -1.0860   -0.3930   -2.5170 hc        1 MOL      0.073215
    108 H49        -0.9440    0.6020   -3.9660 hc        1 MOL      0.073215
    109 N10        -5.3230   -1.3180   -2.0620 n         1 MOL     -0.600302
    110 C35        -6.6400   -0.7240   -1.9260 c3        1 MOL      0.154917
    111 C36        -6.7330    0.6170   -1.1150 c         1 MOL      0.525898
    112 O17        -7.7150    1.3580   -1.2640 o         1 MOL     -0.564511
    113 C37        -7.5690   -1.6980   -1.2790 c3        1 MOL     -0.182920
    114 C38        -7.8530   -2.9500   -1.9300 c         1 MOL      0.664482
    115 N11        -8.1060   -2.8720   -3.2350 n         1 MOL     -0.782988
    116 O18        -7.8780   -4.0130   -1.3360 o         1 MOL     -0.582013
    117 H50        -4.7800   -1.5950   -1.2610 hn        1 MOL      0.367866
    118 H51        -7.0590   -0.4210   -2.8760 h1        1 MOL      0.063446
    119 H52        -8.5610   -1.2310   -1.2490 hc        1 MOL      0.082547
    120 H53        -7.1900   -2.0420   -0.3150 hc        1 MOL      0.082547
    121 H54        -8.1800   -2.0020   -3.7410 hn        1 MOL      0.361505
    122 H55        -7.9730   -3.7550   -3.7100 hn        1 MOL      0.361505
    123 N12        -5.7360    0.9980   -0.2580 n         1 MOL     -0.499811
    124 C39        -5.7990    2.1260    0.7080 c3        1 MOL      0.195579
    125 C40        -4.3940    2.7620    0.7760 c         1 MOL      0.485244
    126 O19        -3.3170    2.2130    0.6270 o         1 MOL     -0.470425
    127 C41        -6.2000    1.5850    2.1200 c3        1 MOL     -0.035593
    128 C42        -7.2180    0.4570    2.1870 ca        1 MOL     -0.068507
    129 C43        -8.5560    0.7520    2.5450 ca        1 MOL     -0.051513
    130 C44        -6.8480   -0.8880    2.1500 ca        1 MOL     -0.051513
    131 C45        -9.5050   -0.3170    2.5880 ca        1 MOL     -0.342662
    132 C46        -7.7290   -1.9500    2.2540 ca        1 MOL     -0.342662
    133 C47        -9.1000   -1.6790    2.3830 ca        1 MOL      0.395786
    134 O20       -10.0150   -2.6360    2.2430 oh        1 MOL     -0.487770
    135 H56        -5.0260    0.2950   -0.0900 hn        1 MOL      0.231811
    136 H57        -6.4970    2.9040    0.3920 h1        1 MOL      0.053956
    137 H58        -6.6650    2.3650    2.7270 hc        1 MOL      0.064405
    138 H59        -5.3320    1.3230    2.7290 hc        1 MOL      0.064405
    139 H60        -8.8830    1.7600    2.7200 ha        1 MOL      0.099290
    140 H61        -5.8070   -1.0920    1.9430 ha        1 MOL      0.099290
    141 H62       -10.5280   -0.1460    2.8590 ha        1 MOL      0.130407
    142 H63        -7.3260   -2.9600    2.2330 ha        1 MOL      0.130407
    143 H64       -10.8940   -2.2600    2.2460 ho        1 MOL      0.358996
    144 N13        -4.4750    4.0540    1.2100 n         1 MOL     -0.665109
    145 C48        -3.2850    4.8110    1.6920 c3        1 MOL      0.387577
    146 C49        -2.2670    5.3500    0.7220 c         1 MOL      0.123242
    147 O21        -1.6960    6.4100    0.9400 o         1 MOL     -0.453387
    148 C50        -2.5240    4.1330    2.8440 c3        1 MOL     -0.116790
    149 C51        -3.4030    4.2380    4.0820 c3        1 MOL     -0.149557
    150 C52        -2.8410    3.7330    5.3810 c         1 MOL      0.718385
    151 O22        -2.0140    4.4380    6.0070 o         1 MOL     -0.737582
    152 O23        -3.2210    2.6200    5.8590 o         1 MOL     -0.737582
    153 H65        -5.3420    4.5650    1.0580 hn        1 MOL      0.321554
    154 H66        -3.6480    5.7100    2.1690 h1        1 MOL      0.024809
    155 H67        -1.5990    4.7060    2.9640 hc        1 MOL      0.080014
    156 H68        -2.3340    3.0930    2.5880 hc        1 MOL      0.080014
    157 H69        -4.3390    3.6850    3.9600 hc        1 MOL     -0.014104
    158 H70        -3.7800    5.2610    4.2140 hc        1 MOL     -0.014104
    159 N14        -1.9780    4.6520   -0.4130 n         1 MOL     -0.065978
    160 C53        -0.9160    5.0390   -1.3960 c3        1 MOL     -0.338007
    161 C54        -1.3580    6.0760   -2.4450 c         1 MOL      0.539649
    162 O24        -0.4790    6.8000   -2.8860 o         1 MOL     -0.550428
    163 C55        -0.2380    3.8290   -2.1110 c3        1 MOL      0.030956
    164 C56        -0.0570    2.5660   -1.2480 c3        1 MOL      0.884046
    165 C57         1.2520    2.5140   -0.4560 c         1 MOL      0.270643
    166 O25         1.6620    3.5040    0.1770 o         1 MOL     -0.620365
    167 O26         1.9540    1.5270   -0.4900 o         1 MOL     -0.620365
    168 H71        -2.4540    3.7710   -0.5760 hn        1 MOL      0.168925
    169 H72        -0.1330    5.5190   -0.8070 h1        1 MOL      0.195846
    170 H73         0.6890    4.1690   -2.5800 hc        1 MOL     -0.001664
    171 H74        -0.8580    3.6060   -2.9730 hc        1 MOL     -0.001664
    172 H75        -0.0680    1.7270   -1.9540 hc        1 MOL     -0.323396
    173 H76        -0.8980    2.5540   -0.5590 hc        1 MOL     -0.323396
    174 N15        -2.6300    6.1300   -2.7630 n         1 MOL     -0.239978
    175 C58        -3.2670    6.9990   -3.8410 c3        1 MOL     -0.190008
    176 H77        -2.6440    7.8770   -4.0140 h1        1 MOL      0.092204
    177 H78        -3.3550    6.4280   -4.7650 h1        1 MOL      0.092204
    178 H79        -4.2570    7.3170   -3.5140 h1        1 MOL      0.092204
    179 H80        -3.2250    5.5360   -2.1960 hn        1 MOL      0.190959
    180 Ca1         3.8750    2.3960    0.9180 Ca        1 MOL      1.762456
    181 O27         2.0730    2.3380    3.3320 oh        1 MOL     -0.810155
    182 H81         1.3190    1.9270    3.7640 ho        1 MOL      0.397513
    183 H82         1.6930    2.8490    2.6220 ho        1 MOL      0.397513
    184 O28         5.1530    1.4020    3.0770 oh        1 MOL     -0.810155
    185 H83         5.1640    0.6150    3.6230 ho        1 MOL      0.397513
    186 H84         6.0550    1.7360    3.1310 ho        1 MOL      0.397513
    187 O29         3.6790    4.7850    1.7560 oh        1 MOL     -0.810155
    188 H85         4.4270    5.1040    2.2600 ho        1 MOL      0.397513
    189 H86         3.1040    5.5400    1.6780 ho        1 MOL      0.397513
@<TRIPOS>BOND
     1    1    2 1   
     2    1    4 1   
     3    1    5 1   
     4    1    6 1   
     5    2    3 2   
     6    2    7 1   
     7    7    8 1   
     8    7   15 1   
     9    8    9 1   
    10    8   11 1   
    11    8   16 1   
    12    9   10 2   
    13    9   19 1   
    14   11   12 1   
    15   11   17 1   
    16   11   18 1   
    17   12   13 1   
    18   12   14 1   
    19   19   20 1   
    20   19   27 1   
    21   20   21 1   
    22   20   23 1   
    23   20   28 1   
    24   21   22 2   
    25   21   38 1   
    26   23   24 1   
    27   23   25 1   
    28   23   29 1   
    29   24   26 1   
    30   24   30 1   
    31   24   31 1   
    32   25   32 1   
    33   25   33 1   
    34   25   34 1   
    35   26   35 1   
    36   26   36 1   
    37   26   37 1   
    38   38   39 1   
    39   38   46 1   
    40   39   40 1   
    41   39   42 1   
    42   39   47 1   
    43   40   41 2   
    44   40   50 1   
    45   42   43 1   
    46   42   48 1   
    47   42   49 1   
    48   43   44 1   
    49   43   45 1   
    50   50   51 1   
    51   50   54 1   
    52   51   52 1   
    53   51   55 1   
    54   51   56 1   
    55   52   53 2   
    56   52   57 1   
    57   57   58 1   
    58   57   65 1   
    59   58   59 1   
    60   58   61 1   
    61   58   66 1   
    62   59   60 2   
    63   59   69 1   
    64   61   62 1   
    65   61   67 1   
    66   61   68 1   
    67   62   63 1   
    68   62   64 1   
    69   69   70 1   
    70   69   73 1   
    71   70   71 1   
    72   70   74 1   
    73   70   75 1   
    74   71   72 2   
    75   71   76 1   
    76   76   77 1   
    77   76   85 1   
    78   77   78 1   
    79   77   80 1   
    80   77   86 1   
    81   78   79 2   
    82   78   93 1   
    83   80   81 1   
    84   80   87 1   
    85   80   88 1   
    86   81   82 1   
    87   81   89 1   
    88   81   90 1   
    89   82   83 1   
    90   82   84 2   
    91   83   91 1   
    92   83   92 1   
    93   93   94 1   
    94   93  100 1   
    95   94   95 1   
    96   94   97 1   
    97   94  101 1   
    98   95   96 2   
    99   95  109 1   
   100   97   98 1   
   101   97   99 1   
   102   97  102 1   
   103   98  103 1   
   104   98  104 1   
   105   98  105 1   
   106   99  106 1   
   107   99  107 1   
   108   99  108 1   
   109  109  110 1   
   110  109  117 1   
   111  110  111 1   
   112  110  113 1   
   113  110  118 1   
   114  111  112 2   
   115  111  123 1   
   116  113  114 1   
   117  113  119 1   
   118  113  120 1   
   119  114  115 1   
   120  114  116 2   
   121  115  121 1   
   122  115  122 1   
   123  123  124 1   
   124  123  135 1   
   125  124  125 1   
   126  124  127 1   
   127  124  136 1   
   128  125  126 2   
   129  125  144 1   
   130  127  128 1   
   131  127  137 1   
   132  127  138 1   
   133  128  129 ar  
   134  128  130 ar  
   135  129  131 ar  
   136  129  139 1   
   137  130  132 ar  
   138  130  140 1   
   139  131  133 ar  
   140  131  141 1   
   141  132  133 ar  
   142  132  142 1   
   143  133  134 1   
   144  134  143 1   
   145  144  145 1   
   146  144  153 1   
   147  145  146 1   
   148  145  148 1   
   149  145  154 1   
   150  146  147 2   
   151  146  159 1   
   152  148  149 1   
   153  148  155 1   
   154  148  156 1   
   155  149  150 1   
   156  149  157 1   
   157  149  158 1   
   158  150  151 1   
   159  150  152 1   
   160  159  160 1   
   161  159  168 1   
   162  160  161 1   
   163  160  163 1   
   164  160  169 1   
   165  161  162 2   
   166  161  174 1   
   167  163  164 1   
   168  163  170 1   
   169  163  171 1   
   170  164  165 1   
   171  164  172 1   
   172  164  173 1   
   173  165  166 1   
   174  165  167 1   
   175  174  175 1   
   176  174  179 1   
   177  175  176 1   
   178  175  177 1   
   179  175  178 1   
   180  181  182 1   
   181  181  183 1   
   182  184  185 1   
   183  184  186 1   
   184  187  188 1   
   185  187  189 1   
@<TRIPOS>SUBSTRUCTURE
     1 MOL         1 TEMP              0 ****  ****    0 ROOT
