@<TRIPOS>MOLECULE
MOL
  178   175     1     0     0
SMALL
resp


@<TRIPOS>ATOM
      1 C1          3.0910   -1.3620    4.9020 c3        1 MOL     -0.255694
      2 C2          3.9950   -0.4490    3.9820 c         1 MOL      0.550729
      3 O1          3.5720   -0.1610    2.8550 o         1 MOL     -0.496615
      4 H1          2.0600   -1.3230    4.5520 hc        1 MOL      0.056946
      5 H2          3.4500   -2.3900    4.8590 hc        1 MOL      0.056946
      6 H3          3.1390   -1.0030    5.9300 hc        1 MOL      0.056946
      7 N1          5.1800   -0.1610    4.4200 n         1 MOL     -0.487329
      8 C3          6.2590    0.3080    3.5260 c3        1 MOL      0.231866
      9 C4          6.6010   -0.6740    2.3330 c         1 MOL      0.401058
     10 O2          6.6970   -0.3200    1.1380 o         1 MOL     -0.442163
     11 C5          7.4130    0.6660    4.5010 c3        1 MOL     -0.178514
     12 C6          8.7330    0.9460    3.7190 c         1 MOL      0.759930
     13 O3          8.7040    1.9050    2.8420 o         1 MOL     -0.732839
     14 O4          9.7580    0.3160    4.0170 o         1 MOL     -0.732839
     15 H4          5.4350   -0.4100    5.3640 hn        1 MOL      0.281231
     16 H5          5.8630    1.1770    3.0160 h1        1 MOL      0.019609
     17 H6          7.4870   -0.2120    5.1330 hc        1 MOL     -0.012992
     18 H7          7.1520    1.5390    5.1060 hc        1 MOL     -0.012992
     19 N2          6.8460   -1.9600    2.7190 n         1 MOL     -0.551431
     20 C7          7.3260   -3.0960    1.9450 c3        1 MOL      0.535482
     21 C8          6.7020   -3.2420    0.5450 c         1 MOL      0.414814
     22 O5          7.3830   -3.4350   -0.4760 o         1 MOL     -0.543650
     23 C9          8.8590   -3.1670    1.9390 c3        1 MOL     -0.459526
     24 H8          6.7210   -2.1350    3.7090 hn        1 MOL      0.254081
     25 H9          6.9830   -4.0370    2.3730 h1        1 MOL     -0.060876
     26 H10         9.2610   -4.0250    1.3980 hc        1 MOL      0.109728
     27 H11         9.1700   -2.1530    1.6750 hc        1 MOL      0.109728
     28 H12         9.0960   -3.4120    2.9800 hc        1 MOL      0.109728
     29 N3          5.3680   -3.1890    0.5340 n         1 MOL     -0.589025
     30 C10         4.5310   -3.4000   -0.6890 c3        1 MOL      0.424092
     31 C11         4.8040   -2.5340   -1.9250 c         1 MOL      0.194257
     32 O6          4.4980   -2.9770   -3.0250 o         1 MOL     -0.427549
     33 C12         4.5280   -4.9470   -0.8450 c3        1 MOL     -0.207199
     34 C13         3.3950   -5.3050   -1.9030 c         1 MOL      0.627382
     35 O7          2.2750   -4.7190   -1.8260 o         1 MOL     -0.681495
     36 O8          3.6690   -6.2190   -2.6990 o         1 MOL     -0.681495
     37 H13         4.9160   -2.8800    1.3850 hn        1 MOL      0.307719
     38 H14         3.5010   -3.1180   -0.4380 h1        1 MOL     -0.021348
     39 H15         4.3070   -5.3700    0.1350 hc        1 MOL      0.047201
     40 H16         5.4790   -5.3660   -1.1780 hc        1 MOL      0.047201
     41 N4          5.3180   -1.2920   -1.8320 n         1 MOL      0.097198
     42 C14         5.8030   -0.5960   -2.9560 c3        1 MOL     -0.131676
     43 C15         4.6720    0.2030   -3.5940 c         1 MOL      0.476656
     44 O9          4.9570    0.6770   -4.6970 o         1 MOL     -0.578272
     45 H17         5.6470   -0.9480   -0.9470 hn        1 MOL      0.104760
     46 H18         6.1400   -1.2800   -3.7410 h1        1 MOL      0.080471
     47 H19         6.6600    0.0030   -2.6460 h1        1 MOL      0.080471
     48 N5          3.4550    0.4050   -3.0110 n         1 MOL     -0.103008
     49 C16         2.4090    1.3070   -3.5530 c3        1 MOL      0.090171
     50 C17         2.5930    2.7390   -2.9200 c         1 MOL      0.348748
     51 O10         2.6850    2.9210   -1.6930 o         1 MOL     -0.470650
     52 C18         1.1610    0.7340   -3.0360 c3        1 MOL     -0.232739
     53 C19         0.8300   -0.5420   -3.5430 c         1 MOL      0.437505
     54 N6          0.1960   -0.6810   -4.6800 n         1 MOL     -0.464378
     55 O11         1.2910   -1.5630   -3.0000 o         1 MOL     -0.514334
     56 H20         3.2670    0.0450   -2.0870 hn        1 MOL      0.084975
     57 H21         2.4030    1.3460   -4.6450 h1        1 MOL      0.016955
     58 H22         0.3160    1.3870   -3.2190 hc        1 MOL      0.140053
     59 H23         1.2540    0.6740   -1.9580 hc        1 MOL      0.140053
     60 H24        -0.3000    0.1560   -4.9490 hn        1 MOL      0.246695
     61 H25        -0.0080   -1.5100   -5.2220 hn        1 MOL      0.246695
     62 N7          2.6360    3.7670   -3.7800 n         1 MOL     -0.337733
     63 C20         2.7860    5.1780   -3.3360 c3        1 MOL     -0.157693
     64 C21         1.4400    5.8720   -2.9510 c         1 MOL      0.586754
     65 O12         0.3650    5.5720   -3.4810 o         1 MOL     -0.537391
     66 H26         2.4580    3.6400   -4.7580 hn        1 MOL      0.277281
     67 H27         3.3330    5.7750   -4.0650 h1        1 MOL      0.117949
     68 H28         3.3200    5.1060   -2.3850 h1        1 MOL      0.117949
     69 N8          1.4920    6.7380   -1.9120 n         1 MOL     -0.525194
     70 C22         0.3900    7.4670   -1.3950 c3        1 MOL     -0.072414
     71 C23        -0.4930    6.7790   -0.3830 c         1 MOL      0.557239
     72 O13        -1.5200    7.2760   -0.0940 o         1 MOL     -0.545661
     73 C24         1.0430    8.7210   -0.8040 c3        1 MOL      0.348351
     74 C25         0.1360    9.6540   -0.0600 c3        1 MOL     -0.418579
     75 O14         1.9440    8.3230    0.1120 oh        1 MOL     -0.606556
     76 H29         2.3510    6.9050   -1.4220 hn        1 MOL      0.275230
     77 H30        -0.2110    7.7900   -2.2480 h1        1 MOL      0.121355
     78 H31         1.5450    9.2700   -1.5960 h1        1 MOL     -0.000399
     79 H32         2.2570    9.0540    0.6600 ho        1 MOL      0.411067
     80 H33        -0.8400    9.6760   -0.5480 hc        1 MOL      0.102676
     81 H34        -0.0390    9.2540    0.9440 hc        1 MOL      0.102676
     82 H35         0.5980   10.6330    0.0720 hc        1 MOL      0.102676
     83 N9         -0.1310    5.5670    0.0570 n         1 MOL     -0.315692
     84 C26        -0.8970    4.6400    0.9530 c3        1 MOL      0.069284
     85 C27        -1.1030    3.2690    0.2300 c         1 MOL      0.358223
     86 O15        -0.4770    3.0430   -0.7980 o         1 MOL     -0.386900
     87 C28        -0.3270    4.5240    2.4520 c3        1 MOL      0.073297
     88 C29         0.8560    3.5520    2.7700 c3        1 MOL     -0.199334
     89 C30        -0.0810    5.9020    3.0720 c3        1 MOL     -0.172916
     90 C31         2.0710    3.8330    1.9440 c3        1 MOL      0.003205
     91 H36         0.7920    5.3010   -0.2630 hn        1 MOL      0.267723
     92 H37        -1.8990    5.0460    1.0330 h1        1 MOL      0.045475
     93 H38        -1.1100    4.0790    3.0700 hc        1 MOL     -0.025230
     94 H39         0.5740    2.5420    2.4720 hc        1 MOL      0.077846
     95 H40         1.1440    3.5250    3.8260 hc        1 MOL      0.077846
     96 H41        -0.9980    6.4940    3.0530 hc        1 MOL      0.042600
     97 H42         0.2460    5.8130    4.1010 hc        1 MOL      0.042600
     98 H43         0.6270    6.4660    2.4590 hc        1 MOL      0.042600
     99 H44         2.7270    2.9680    2.0490 hc        1 MOL      0.021612
    100 H45         1.8810    3.8510    0.8680 hc        1 MOL      0.021612
    101 H46         2.6160    4.7460    2.1750 hc        1 MOL      0.021612
    102 N10        -2.0240    2.4330    0.7160 n         1 MOL     -0.363222
    103 C32        -2.2050    1.0800    0.1090 c3        1 MOL     -0.025907
    104 C33        -3.6240    0.4660    0.3240 c         1 MOL      0.631027
    105 O16        -3.7510   -0.7480    0.4830 o         1 MOL     -0.542803
    106 C34        -1.1740    0.1320    0.7520 c3        1 MOL     -0.368318
    107 C35        -0.6710   -1.0640   -0.1070 c         1 MOL      0.602511
    108 O17         0.3420   -1.6820    0.3520 o         1 MOL     -0.681781
    109 O18        -1.2760   -1.5690   -1.0830 o         1 MOL     -0.681781
    110 H47        -2.6250    2.7930    1.4380 hn        1 MOL      0.254480
    111 H48        -2.0250    1.1320   -0.9690 h1        1 MOL      0.056260
    112 H49        -1.5810   -0.2690    1.6800 hc        1 MOL      0.168661
    113 H50        -0.2590    0.6820    1.0060 hc        1 MOL      0.168661
    114 N11        -4.6650    1.2520    0.1450 n         1 MOL     -0.440206
    115 C36        -6.0740    0.7500   -0.2180 c3        1 MOL      0.171449
    116 C37        -6.6580   -0.1760    0.8500 c         1 MOL      0.406666
    117 O19        -6.6060    0.2320    1.9940 o         1 MOL     -0.487215
    118 C38        -6.9640    1.9720   -0.4010 c3        1 MOL     -0.188067
    119 C39        -8.4520    1.6970   -0.5640 ca        1 MOL     -0.001607
    120 C40        -8.8370    1.2010   -1.7640 ca        1 MOL     -0.114615
    121 C41        -9.3210    1.6660    0.5950 ca        1 MOL     -0.114615
    122 C42       -10.1730    0.7080   -1.8540 ca        1 MOL     -0.145828
    123 C43       -10.5120    1.0010    0.4650 ca        1 MOL     -0.145828
    124 C44       -10.9910    0.4920   -0.7410 ca        1 MOL     -0.054450
    125 H51        -4.4260    2.2370    0.0880 hn        1 MOL      0.238867
    126 H52        -6.0480    0.2390   -1.1810 h1        1 MOL      0.012090
    127 H53        -6.5620    2.5990   -1.1900 hc        1 MOL      0.083271
    128 H54        -6.8260    2.5110    0.5390 hc        1 MOL      0.083271
    129 H55        -8.1940    1.1960   -2.6320 ha        1 MOL      0.134888
    130 H56        -9.0560    2.0720    1.5550 ha        1 MOL      0.134888
    131 H57       -10.6510    0.4210   -2.7810 ha        1 MOL      0.103412
    132 H58       -11.1930    0.9730    1.3020 ha        1 MOL      0.103412
    133 H59       -11.9530    0.0210   -0.8740 ha        1 MOL      0.097942
    134 N12        -7.2080   -1.3910    0.4910 n         1 MOL     -0.069059
    135 C45        -7.4480   -2.4680    1.4560 c3        1 MOL     -0.004730
    136 C46        -6.3490   -2.8300    2.4590 c         1 MOL      0.294353
    137 O20        -6.6370   -3.2060    3.5980 o         1 MOL     -0.509848
    138 C47        -7.8830   -3.7110    0.6180 c3        1 MOL      0.072710
    139 C48        -8.5200   -3.0610   -0.6780 c3        1 MOL     -0.185449
    140 C49        -7.5140   -1.9430   -0.8400 c3        1 MOL      0.081651
    141 H60        -8.2880   -2.2450    2.1120 h1        1 MOL      0.046596
    142 H61        -7.0480   -4.3760    0.4540 hc        1 MOL      0.014616
    143 H62        -8.6090   -4.3370    1.1460 hc        1 MOL      0.014616
    144 H63        -8.5990   -3.8060   -1.4770 hc        1 MOL      0.061020
    145 H64        -9.5140   -2.6190   -0.5640 hc        1 MOL      0.061020
    146 H65        -6.5420   -2.2170   -1.2610 h1        1 MOL      0.005381
    147 H66        -7.9870   -1.2130   -1.5040 h1        1 MOL      0.005381
    148 N13        -5.0950   -2.8760    2.0180 n         1 MOL     -0.085744
    149 C50        -3.9580   -3.2010    2.9480 c3        1 MOL     -0.162547
    150 C51        -3.6130   -2.0110    3.9430 c         1 MOL      0.405888
    151 O21        -3.1610   -2.2010    5.0350 o         1 MOL     -0.540357
    152 C52        -2.7550   -3.6350    2.0690 c3        1 MOL     -0.134986
    153 C53        -2.9120   -4.8720    1.1680 c3        1 MOL     -0.071256
    154 C54        -1.8140   -4.8670    0.0930 c         1 MOL      0.712612
    155 O22        -2.1050   -4.6700   -1.1050 o         1 MOL     -0.748833
    156 O23        -0.5990   -5.0370    0.3530 o         1 MOL     -0.748833
    157 H67        -4.8740   -2.4030    1.1510 hn        1 MOL      0.199073
    158 H68        -4.2730   -3.9890    3.6220 h1        1 MOL      0.141676
    159 H69        -2.0080   -4.0200    2.7610 hc        1 MOL      0.118654
    160 H70        -2.3990   -2.8160    1.4480 hc        1 MOL      0.118654
    161 H71        -3.8980   -4.9410    0.6960 hc        1 MOL     -0.009979
    162 H72        -2.7410   -5.7940    1.7230 hc        1 MOL     -0.009979
    163 N14        -4.1140   -0.8440    3.6790 n         1 MOL      0.032438
    164 C55        -3.9200    0.3390    4.5210 c3        1 MOL     -0.266274
    165 H73        -4.7900    0.4730    5.1640 h1        1 MOL      0.095944
    166 H74        -3.0320    0.2050    5.1380 h1        1 MOL      0.095944
    167 H75        -3.7960    1.2190    3.8900 h1        1 MOL      0.095944
    168 H76        -4.5370   -0.7370    2.7700 hn        1 MOL      0.045380
    169 Ca1        -0.0040   -3.6420   -1.9890 Ca        1 MOL      1.680513
    170 O24         1.0710   -3.9910   -4.8330 oh        1 MOL     -0.764949
    171 H77         1.2290   -4.9340   -4.8210 ho        1 MOL      0.374107
    172 H78         0.6600   -3.8350   -5.6890 ho        1 MOL      0.374107
    173 O25        -0.6440   -6.0280   -3.1850 oh        1 MOL     -0.764949
    174 H79        -0.0100   -6.6170   -3.6020 ho        1 MOL      0.374107
    175 H80        -1.4930   -6.3640   -3.4620 ho        1 MOL      0.374107
    176 O26        -1.9380   -2.8080   -3.7580 oh        1 MOL     -0.764949
    177 H81        -2.8030   -2.9270   -4.1700 ho        1 MOL      0.374107
    178 H82        -1.8330   -1.8540   -3.7000 ho        1 MOL      0.374107
@<TRIPOS>BOND
     1    1    2 1   
     2    1    4 1   
     3    1    5 1   
     4    1    6 1   
     5    2    3 2   
     6    2    7 1   
     7    7    8 1   
     8    7   15 1   
     9    8    9 1   
    10    8   11 1   
    11    8   16 1   
    12    9   10 2   
    13    9   19 1   
    14   11   12 1   
    15   11   17 1   
    16   11   18 1   
    17   12   13 1   
    18   12   14 1   
    19   19   20 1   
    20   19   24 1   
    21   20   21 1   
    22   20   23 1   
    23   20   25 1   
    24   21   22 2   
    25   21   29 1   
    26   23   26 1   
    27   23   27 1   
    28   23   28 1   
    29   29   30 1   
    30   29   37 1   
    31   30   31 1   
    32   30   33 1   
    33   30   38 1   
    34   31   32 2   
    35   31   41 1   
    36   33   34 1   
    37   33   39 1   
    38   33   40 1   
    39   34   35 1   
    40   34   36 1   
    41   41   42 1   
    42   41   45 1   
    43   42   43 1   
    44   42   46 1   
    45   42   47 1   
    46   43   44 2   
    47   43   48 1   
    48   48   49 1   
    49   48   56 1   
    50   49   50 1   
    51   49   52 1   
    52   49   57 1   
    53   50   51 2   
    54   50   62 1   
    55   52   53 1   
    56   52   58 1   
    57   52   59 1   
    58   53   54 1   
    59   53   55 2   
    60   54   60 1   
    61   54   61 1   
    62   62   63 1   
    63   62   66 1   
    64   63   64 1   
    65   63   67 1   
    66   63   68 1   
    67   64   65 2   
    68   64   69 1   
    69   69   70 1   
    70   69   76 1   
    71   70   71 1   
    72   70   73 1   
    73   70   77 1   
    74   71   72 2   
    75   71   83 1   
    76   73   74 1   
    77   73   75 1   
    78   73   78 1   
    79   74   80 1   
    80   74   81 1   
    81   74   82 1   
    82   75   79 1   
    83   83   84 1   
    84   83   91 1   
    85   84   85 1   
    86   84   87 1   
    87   84   92 1   
    88   85   86 2   
    89   85  102 1   
    90   87   88 1   
    91   87   89 1   
    92   87   93 1   
    93   88   90 1   
    94   88   94 1   
    95   88   95 1   
    96   89   96 1   
    97   89   97 1   
    98   89   98 1   
    99   90   99 1   
   100   90  100 1   
   101   90  101 1   
   102  102  103 1   
   103  102  110 1   
   104  103  104 1   
   105  103  106 1   
   106  103  111 1   
   107  104  105 2   
   108  104  114 1   
   109  106  107 1   
   110  106  112 1   
   111  106  113 1   
   112  107  108 1   
   113  107  109 1   
   114  114  115 1   
   115  114  125 1   
   116  115  116 1   
   117  115  118 1   
   118  115  126 1   
   119  116  117 2   
   120  116  134 1   
   121  118  119 1   
   122  118  127 1   
   123  118  128 1   
   124  119  120 ar  
   125  119  121 ar  
   126  120  122 ar  
   127  120  129 1   
   128  121  123 ar  
   129  121  130 1   
   130  122  124 ar  
   131  122  131 1   
   132  123  124 ar  
   133  123  132 1   
   134  124  133 1   
   135  134  135 1   
   136  134  140 1   
   137  135  136 1   
   138  135  138 1   
   139  135  141 1   
   140  136  137 2   
   141  136  148 1   
   142  138  139 1   
   143  138  142 1   
   144  138  143 1   
   145  139  140 1   
   146  139  144 1   
   147  139  145 1   
   148  140  146 1   
   149  140  147 1   
   150  148  149 1   
   151  148  157 1   
   152  149  150 1   
   153  149  152 1   
   154  149  158 1   
   155  150  151 2   
   156  150  163 1   
   157  152  153 1   
   158  152  159 1   
   159  152  160 1   
   160  153  154 1   
   161  153  161 1   
   162  153  162 1   
   163  154  155 1   
   164  154  156 1   
   165  163  164 1   
   166  163  168 1   
   167  164  165 1   
   168  164  166 1   
   169  164  167 1   
   170  170  171 1   
   171  170  172 1   
   172  173  174 1   
   173  173  175 1   
   174  176  177 1   
   175  176  178 1   
@<TRIPOS>SUBSTRUCTURE
     1 MOL         1 TEMP              0 ****  ****    0 ROOT
