@<TRIPOS>MOLECULE
MOL
  192   187     1     0     0
SMALL
resp


@<TRIPOS>ATOM
      1 C1         -8.9680    0.8190   -1.9990 c3        1 MOL     -0.600793
      2 C2         -7.8630    0.2490   -1.1190 c         1 MOL      0.867936
      3 O1         -6.7230    0.1560   -1.5460 o         1 MOL     -0.684675
      4 H1         -9.5760    1.5100   -1.4160 hc        1 MOL      0.149029
      5 H2         -8.5260    1.3480   -2.8430 hc        1 MOL      0.149029
      6 H3         -9.5950    0.0070   -2.3680 hc        1 MOL      0.149029
      7 N1         -8.2380   -0.0610    0.1530 n         1 MOL     -0.487718
      8 C3         -7.3210   -0.1350    1.2480 c3        1 MOL     -0.073577
      9 C4         -6.7660   -1.5910    1.3150 c         1 MOL      0.654378
     10 O2         -6.4390   -2.1910    2.3340 o         1 MOL     -0.469572
     11 C5         -7.9860    0.4910    2.4940 c3        1 MOL     -0.262969
     12 C6         -9.2840   -0.2280    2.9360 c         1 MOL      0.786204
     13 O3         -9.2870   -0.9520    3.9180 o         1 MOL     -0.660422
     14 O4        -10.3210    0.0400    2.3290 o         1 MOL     -0.660422
     15 H4         -9.2160    0.0410    0.3760 hn        1 MOL      0.202913
     16 H5         -6.4670    0.5100    1.0720 h1        1 MOL      0.161424
     17 H6         -8.2470    1.5120    2.2510 hc        1 MOL      0.081558
     18 H7         -7.3110    0.5250    3.3430 hc        1 MOL      0.081558
     19 N2         -6.4610   -2.1900    0.1580 n         1 MOL     -0.586522
     20 C7         -5.9300   -3.5540   -0.0460 c3        1 MOL     -0.011734
     21 C8         -4.4610   -3.7810    0.4320 c         1 MOL      0.525354
     22 O5         -4.1530   -4.8200    1.0030 o         1 MOL     -0.540629
     23 C9         -6.1520   -3.9920   -1.5060 c3        1 MOL     -0.079572
     24 C10        -7.6770   -3.9680   -1.8320 c3        1 MOL      0.195922
     25 C11        -7.8880   -4.5150   -3.2420 c3        1 MOL     -0.065048
     26 C12        -9.3870   -4.8180   -3.5540 c3        1 MOL      0.160179
     27 N3         -9.6560   -4.8220   -5.0150 n4        1 MOL     -0.364676
     28 H8         -6.6380   -1.6190   -0.6660 hn        1 MOL      0.300597
     29 H9         -6.5410   -4.2560    0.5260 h1        1 MOL      0.124915
     30 H10        -5.7220   -4.9670   -1.7370 hc        1 MOL      0.023203
     31 H11        -5.7720   -3.2180   -2.1660 hc        1 MOL      0.023203
     32 H12        -8.1610   -2.9900   -1.8260 hc        1 MOL     -0.039658
     33 H13        -8.1990   -4.6400   -1.1510 hc        1 MOL     -0.039658
     34 H14        -7.2910   -5.4240   -3.3090 hc        1 MOL      0.022798
     35 H15        -7.5890   -3.6940   -3.9000 hc        1 MOL      0.022798
     36 H16        -9.9740   -4.0100   -3.1230 hx        1 MOL      0.044987
     37 H17        -9.7710   -5.7650   -3.1580 hx        1 MOL      0.044987
     38 H18        -9.0890   -5.4880   -5.5200 hn        1 MOL      0.271318
     39 H19       -10.6000   -5.1190   -5.2250 hn        1 MOL      0.271318
     40 H20        -9.6450   -3.8530   -5.2860 hn        1 MOL      0.271318
     41 N4         -3.4540   -2.9100    0.1540 n         1 MOL     -0.212049
     42 C13        -3.5550   -1.7650   -0.7430 c3        1 MOL     -0.065001
     43 C14        -3.6580   -0.4120    0.0030 c         1 MOL      0.027458
     44 O6         -3.5570   -0.3320    1.2710 o         1 MOL     -0.372594
     45 C15        -2.3540   -1.7300   -1.7280 c3        1 MOL     -0.239931
     46 C16        -1.1280   -2.0080   -0.8840 c         1 MOL      0.729403
     47 O7         -0.9750   -1.3090    0.1510 o         1 MOL     -0.662057
     48 O8         -0.3150   -2.8300   -1.4040 o         1 MOL     -0.662057
     49 H21        -2.5470   -3.3530    0.1660 hn        1 MOL      0.253741
     50 H22        -4.3840   -1.8300   -1.4570 h1        1 MOL      0.158468
     51 H23        -2.3280   -0.8020   -2.3130 hc        1 MOL      0.051322
     52 H24        -2.4660   -2.5660   -2.4250 hc        1 MOL      0.051322
     53 N5         -3.8800    0.6350   -0.8250 n         1 MOL     -0.169005
     54 C17        -4.0990    1.9520   -0.3410 c3        1 MOL     -0.040794
     55 C18        -2.9920    2.5770    0.5070 c         1 MOL      0.671782
     56 O9         -1.9220    1.9750    0.6330 o         1 MOL     -0.562538
     57 H25        -4.1250    0.4700   -1.7920 hn        1 MOL      0.292151
     58 H26        -5.0650    2.0060    0.1490 h1        1 MOL      0.031232
     59 H27        -4.1630    2.6610   -1.1730 h1        1 MOL      0.031232
     60 N6         -3.2780    3.7580    1.1430 n         1 MOL     -0.487145
     61 C19        -2.3390    4.5490    1.9130 c3        1 MOL      0.254682
     62 C20        -2.5740    6.0920    1.8800 c         1 MOL      0.493950
     63 O10        -3.7270    6.5290    1.7320 o         1 MOL     -0.526955
     64 C21        -2.2270    3.9770    3.3290 c3        1 MOL     -0.455834
     65 C22        -1.5890    2.6120    3.4690 c         1 MOL      0.649734
     66 O11        -0.4600    2.3940    2.9220 o         1 MOL     -0.616339
     67 O12        -2.2130    1.7850    4.1500 o         1 MOL     -0.616339
     68 H28        -4.1940    4.1760    1.0340 hn        1 MOL      0.261989
     69 H29        -1.3460    4.3730    1.4950 h1        1 MOL      0.045960
     70 H30        -3.2150    3.8290    3.7690 hc        1 MOL      0.127854
     71 H31        -1.7490    4.7370    3.9510 hc        1 MOL      0.127854
     72 N7         -1.5410    6.9590    1.9160 n         1 MOL     -0.534343
     73 C23        -0.1230    6.5360    2.1700 c3        1 MOL      0.153092
     74 C24         0.5910    5.9950    0.9410 c         1 MOL      0.594806
     75 O13         0.2190    6.3310   -0.1900 o         1 MOL     -0.542769
     76 H32        -1.6770    7.9300    1.6670 hn        1 MOL      0.333703
     77 H33        -0.1360    5.7370    2.9050 h1        1 MOL      0.013126
     78 H34         0.4640    7.3580    2.6010 h1        1 MOL      0.013126
     79 N8          1.6310    5.3150    1.1800 n         1 MOL     -0.570698
     80 C25         2.4370    4.6290    0.1370 c3        1 MOL      0.003163
     81 C26         1.6000    3.5760   -0.5970 c         1 MOL      0.710174
     82 O14         0.8910    2.8230    0.0260 o         1 MOL     -0.758528
     83 C27         3.6620    3.9800    0.7900 c3        1 MOL      0.498610
     84 C28         4.5770    4.9970    1.4530 c3        1 MOL     -0.325535
     85 O15         4.5350    3.3780   -0.1910 oh        1 MOL     -0.661528
     86 H35         1.8080    4.9540    2.1160 hn        1 MOL      0.283519
     87 H36         2.7960    5.3030   -0.6380 h1        1 MOL      0.098090
     88 H37         3.3870    3.2220    1.5100 h1        1 MOL     -0.021829
     89 H38         5.1650    2.8050    0.2540 ho        1 MOL      0.379824
     90 H39         4.0080    5.5690    2.1780 hc        1 MOL      0.079786
     91 H40         5.2930    4.4020    2.0170 hc        1 MOL      0.079786
     92 H41         5.0100    5.6210    0.6700 hc        1 MOL      0.079786
     93 N9          1.6370    3.5210   -1.9230 n         1 MOL     -0.630979
     94 C29         0.8910    2.5460   -2.8150 c3        1 MOL     -0.007086
     95 C30         1.2790    1.1340   -2.3880 c         1 MOL      0.454200
     96 O16         0.7520    0.5200   -1.4500 o         1 MOL     -0.561729
     97 C31        -0.6640    2.7960   -2.7890 c3        1 MOL      0.261693
     98 C32        -0.9850    4.3170   -3.0780 c3        1 MOL      0.037536
     99 C33        -1.4600    1.9020   -3.6510 c3        1 MOL     -0.510349
    100 C34        -2.4360    4.6470   -2.7240 c3        1 MOL     -0.189619
    101 H42         1.9750    4.3940   -2.3110 hn        1 MOL      0.313131
    102 H43         1.2770    2.6810   -3.8300 h1        1 MOL      0.071494
    103 H44        -0.9820    2.4970   -1.7890 hc        1 MOL      0.114759
    104 H45        -0.7440    4.5620   -4.1230 hc        1 MOL     -0.006369
    105 H46        -0.3770    4.9440   -2.4300 hc        1 MOL     -0.006369
    106 H47        -1.0520    0.8920   -3.6110 hc        1 MOL      0.114191
    107 H48        -2.5010    1.7800   -3.3440 hc        1 MOL      0.114191
    108 H49        -1.2950    2.1910   -4.7000 hc        1 MOL      0.114191
    109 H50        -2.3980    4.6190   -1.6340 hc        1 MOL      0.043252
    110 H51        -2.7820    5.6130   -3.1050 hc        1 MOL      0.043252
    111 H52        -3.1850    3.9300   -3.0370 hc        1 MOL      0.043252
    112 N10         2.1090    0.6000   -3.2550 n         1 MOL     -0.200001
    113 C35         2.5670   -0.7620   -3.1360 c3        1 MOL     -0.318585
    114 C36         4.0780   -0.9670   -3.3680 c         1 MOL      0.464321
    115 O17         4.5270   -2.1580   -3.4020 o         1 MOL     -0.519239
    116 C37         1.7660   -1.7100   -4.0190 c3        1 MOL      0.368437
    117 C38         1.7270   -1.2120   -5.4470 c3        1 MOL     -0.131039
    118 O18         0.3980   -1.6580   -3.7530 oh        1 MOL     -0.623408
    119 H53         2.3810    1.1000   -4.0940 hn        1 MOL      0.249508
    120 H54         2.4440   -1.0440   -2.0950 h1        1 MOL      0.228596
    121 H55         2.0200   -2.7690   -3.9930 h1        1 MOL      0.047180
    122 H56         0.2260   -2.0480   -2.8900 ho        1 MOL      0.391055
    123 H57         1.2670   -1.8870   -6.1670 hc        1 MOL      0.025458
    124 H58         1.3290   -0.1950   -5.5400 hc        1 MOL      0.025458
    125 H59         2.7250   -1.1590   -5.8740 hc        1 MOL      0.025458
    126 N11         4.9740    0.0760   -3.3860 n         1 MOL     -0.368269
    127 C39         6.3900   -0.1120   -3.1510 c3        1 MOL      0.183271
    128 C40         6.7390   -0.5270   -1.7260 c         1 MOL      0.481155
    129 O19         7.0100    0.2760   -0.7940 o         1 MOL     -0.502108
    130 C41         7.2620    1.0910   -3.5740 c3        1 MOL      0.146835
    131 C42         6.9780    1.5420   -5.0160 c3        1 MOL     -0.243992
    132 O20         6.9220    2.3150   -2.8500 oh        1 MOL     -0.584574
    133 H60         4.6390    1.0060   -3.1760 hn        1 MOL      0.275228
    134 H61         6.7550   -0.9190   -3.7710 h1        1 MOL      0.045402
    135 H62         8.2910    0.7230   -3.5170 h1        1 MOL      0.035866
    136 H63         7.5120    2.9810   -3.2200 ho        1 MOL      0.401752
    137 H64         7.7000    2.2980   -5.3100 hc        1 MOL      0.062519
    138 H65         6.9960    0.6540   -5.6540 hc        1 MOL      0.062519
    139 H66         5.9530    1.9100   -5.0260 hc        1 MOL      0.062519
    140 N12         6.7540   -1.8820   -1.3800 n         1 MOL     -0.625136
    141 C43         6.4980   -2.5000   -0.0040 c3        1 MOL      0.393799
    142 C44         5.1350   -2.2260    0.6040 c         1 MOL      0.558698
    143 O21         4.2920   -1.5130    0.0520 o         1 MOL     -0.531213
    144 C45         7.7220   -2.1400    0.8950 c3        1 MOL     -0.621261
    145 C46         9.1440   -2.4430    0.4130 c3        1 MOL      0.386571
    146 C47        10.1200   -1.7970    1.3900 c3        1 MOL     -0.056776
    147 C48        11.5410   -2.3800    1.1770 c3        1 MOL      0.069147
    148 N13        12.3070   -1.5410    0.2300 n4        1 MOL     -0.284939
    149 H67         6.5560   -2.4580   -2.1850 hn        1 MOL      0.299684
    150 H68         6.5930   -3.5710   -0.1920 h1        1 MOL      0.021359
    151 H69         7.6060   -2.8000    1.7550 hc        1 MOL      0.146040
    152 H70         7.5850   -1.0960    1.1870 hc        1 MOL      0.146040
    153 H71         9.3390   -2.1440   -0.6140 hc        1 MOL     -0.065591
    154 H72         9.3080   -3.5240    0.4820 hc        1 MOL     -0.065591
    155 H73         9.8540   -2.1560    2.3820 hc        1 MOL      0.054414
    156 H74        10.1520   -0.7090    1.3660 hc        1 MOL      0.054414
    157 H75        11.6260   -3.3810    0.7440 hx        1 MOL      0.055172
    158 H76        12.1230   -2.3430    2.0980 hx        1 MOL      0.055172
    159 H77        12.0470   -1.7220   -0.7270 hn        1 MOL      0.239369
    160 H78        12.1720   -0.5640    0.4280 hn        1 MOL      0.239369
    161 H79        13.2500   -1.8750    0.3520 hn        1 MOL      0.239369
    162 N14         4.8420   -2.9920    1.6290 n         1 MOL     -0.753096
    163 C49         3.5850   -2.8060    2.3800 c3        1 MOL      0.612133
    164 C50         2.2170   -2.6740    1.5500 c         1 MOL      0.163432
    165 O22         1.4680   -1.7450    1.7430 o         1 MOL     -0.507036
    166 C51         3.5000   -3.9820    3.3670 c3        1 MOL      0.130658
    167 C52         4.4700   -3.8140    4.5050 c3        1 MOL     -0.245940
    168 C53         4.2480   -4.8170    5.6140 c         1 MOL      0.759597
    169 O23         4.1110   -4.4020    6.7860 o         1 MOL     -0.643208
    170 O24         4.2180   -6.0050    5.3860 o         1 MOL     -0.643208
    171 H80         5.5990   -3.5640    1.9890 hn        1 MOL      0.356126
    172 H81         3.6710   -1.8800    2.9640 h1        1 MOL     -0.068789
    173 H82         3.7530   -4.9060    2.8470 hc        1 MOL     -0.015770
    174 H83         2.4890   -4.0840    3.7640 hc        1 MOL     -0.015770
    175 H84         4.3050   -2.7800    4.8210 hc        1 MOL     -0.008180
    176 H85         5.4870   -3.8720    4.1230 hc        1 MOL     -0.008180
    177 N15         1.8680   -3.4470    0.5170 n         1 MOL     -0.128893
    178 C54         2.4200   -4.7450    0.0820 c3        1 MOL     -0.100921
    179 H86         3.4270   -4.5990   -0.3080 h1        1 MOL      0.050092
    180 H87         2.4540   -5.4290    0.9310 h1        1 MOL      0.050092
    181 H88         1.7870   -5.1660   -0.6990 h1        1 MOL      0.050092
    182 H89         1.1750   -3.0170   -0.0880 hn        1 MOL      0.225795
    183 Ca1         0.3900    0.6310    1.2420 Ca        1 MOL      1.833106
    184 O25        -1.5210   -0.3450    3.0590 oh        1 MOL     -0.902858
    185 H90        -2.2880   -0.5510    2.5160 ho        1 MOL      0.428200
    186 H91        -1.7650    0.4710    3.4960 ho        1 MOL      0.428200
    187 O26         3.0810    0.7050    0.8250 oh        1 MOL     -0.902858
    188 H92         3.8690    1.2390    0.8760 ho        1 MOL      0.428200
    189 H93         3.3530   -0.0830    0.3560 ho        1 MOL      0.428200
    190 O27         1.9570    0.6200    3.7270 oh        1 MOL     -0.902858
    191 H94         1.9710   -0.0760    4.3780 ho        1 MOL      0.428200
    192 H95         2.7950    1.0700    3.8370 ho        1 MOL      0.428200
@<TRIPOS>BOND
     1    1    2 1   
     2    1    4 1   
     3    1    5 1   
     4    1    6 1   
     5    2    3 2   
     6    2    7 1   
     7    7    8 1   
     8    7   15 1   
     9    8    9 1   
    10    8   11 1   
    11    8   16 1   
    12    9   10 2   
    13    9   19 1   
    14   11   12 1   
    15   11   17 1   
    16   11   18 1   
    17   12   13 1   
    18   12   14 1   
    19   19   20 1   
    20   19   28 1   
    21   20   21 1   
    22   20   23 1   
    23   20   29 1   
    24   21   22 2   
    25   21   41 1   
    26   23   24 1   
    27   23   30 1   
    28   23   31 1   
    29   24   25 1   
    30   24   32 1   
    31   24   33 1   
    32   25   26 1   
    33   25   34 1   
    34   25   35 1   
    35   26   27 1   
    36   26   36 1   
    37   26   37 1   
    38   27   38 1   
    39   27   39 1   
    40   27   40 1   
    41   41   42 1   
    42   41   49 1   
    43   42   43 1   
    44   42   45 1   
    45   42   50 1   
    46   43   44 2   
    47   43   53 1   
    48   45   46 1   
    49   45   51 1   
    50   45   52 1   
    51   46   47 1   
    52   46   48 1   
    53   53   54 1   
    54   53   57 1   
    55   54   55 1   
    56   54   58 1   
    57   54   59 1   
    58   55   56 2   
    59   55   60 1   
    60   60   61 1   
    61   60   68 1   
    62   61   62 1   
    63   61   64 1   
    64   61   69 1   
    65   62   63 2   
    66   62   72 1   
    67   64   65 1   
    68   64   70 1   
    69   64   71 1   
    70   65   66 1   
    71   65   67 1   
    72   72   73 1   
    73   72   76 1   
    74   73   74 1   
    75   73   77 1   
    76   73   78 1   
    77   74   75 2   
    78   74   79 1   
    79   79   80 1   
    80   79   86 1   
    81   80   81 1   
    82   80   83 1   
    83   80   87 1   
    84   81   82 2   
    85   81   93 1   
    86   83   84 1   
    87   83   85 1   
    88   83   88 1   
    89   84   90 1   
    90   84   91 1   
    91   84   92 1   
    92   85   89 1   
    93   93   94 1   
    94   93  101 1   
    95   94   95 1   
    96   94   97 1   
    97   94  102 1   
    98   95   96 2   
    99   95  112 1   
   100   97   98 1   
   101   97   99 1   
   102   97  103 1   
   103   98  100 1   
   104   98  104 1   
   105   98  105 1   
   106   99  106 1   
   107   99  107 1   
   108   99  108 1   
   109  100  109 1   
   110  100  110 1   
   111  100  111 1   
   112  112  113 1   
   113  112  119 1   
   114  113  114 1   
   115  113  116 1   
   116  113  120 1   
   117  114  115 2   
   118  114  126 1   
   119  116  117 1   
   120  116  118 1   
   121  116  121 1   
   122  117  123 1   
   123  117  124 1   
   124  117  125 1   
   125  118  122 1   
   126  126  127 1   
   127  126  133 1   
   128  127  128 1   
   129  127  130 1   
   130  127  134 1   
   131  128  129 2   
   132  128  140 1   
   133  130  131 1   
   134  130  132 1   
   135  130  135 1   
   136  131  137 1   
   137  131  138 1   
   138  131  139 1   
   139  132  136 1   
   140  140  141 1   
   141  140  149 1   
   142  141  142 1   
   143  141  144 1   
   144  141  150 1   
   145  142  143 2   
   146  142  162 1   
   147  144  145 1   
   148  144  151 1   
   149  144  152 1   
   150  145  146 1   
   151  145  153 1   
   152  145  154 1   
   153  146  147 1   
   154  146  155 1   
   155  146  156 1   
   156  147  148 1   
   157  147  157 1   
   158  147  158 1   
   159  148  159 1   
   160  148  160 1   
   161  148  161 1   
   162  162  163 1   
   163  162  171 1   
   164  163  164 1   
   165  163  166 1   
   166  163  172 1   
   167  164  165 2   
   168  164  177 1   
   169  166  167 1   
   170  166  173 1   
   171  166  174 1   
   172  167  168 1   
   173  167  175 1   
   174  167  176 1   
   175  168  169 1   
   176  168  170 1   
   177  177  178 1   
   178  177  182 1   
   179  178  179 1   
   180  178  180 1   
   181  178  181 1   
   182  184  185 1   
   183  184  186 1   
   184  187  188 1   
   185  187  189 1   
   186  190  191 1   
   187  190  192 1   
@<TRIPOS>SUBSTRUCTURE
     1 MOL         1 TEMP              0 ****  ****    0 ROOT
