@<TRIPOS>MOLECULE
MOL
  175   173     1     0     0
SMALL
resp


@<TRIPOS>ATOM
      1 C1         -6.3630    7.6380    2.1270 c3        1 MOL     -0.406658
      2 C2         -7.1920    7.2670    0.9140 c         1 MOL      0.671451
      3 O1         -7.3100    7.8940   -0.1520 o         1 MOL     -0.594893
      4 H1         -6.5990    6.9610    2.9490 hc        1 MOL      0.103022
      5 H2         -5.3040    7.5560    1.8820 hc        1 MOL      0.103022
      6 H3         -6.5900    8.6610    2.4230 hc        1 MOL      0.103022
      7 N1         -7.8480    6.0930    1.0160 n         1 MOL     -0.570335
      8 C3         -8.6830    5.3190    0.1000 c3        1 MOL      0.496605
      9 C4         -7.9980    4.3940   -0.9050 c         1 MOL      0.457251
     10 O2         -8.4430    4.1530   -2.0100 o         1 MOL     -0.485583
     11 C5         -9.7660    4.6120    0.8660 c3        1 MOL     -0.355935
     12 C6        -11.1250    4.4890    0.1240 c         1 MOL      0.781405
     13 O3        -11.2830    4.9950   -0.9840 o         1 MOL     -0.749296
     14 O4        -12.0070    3.8130    0.7410 o         1 MOL     -0.749296
     15 H4         -7.6080    5.6170    1.8790 hn        1 MOL      0.248396
     16 H5         -9.1160    6.0730   -0.5570 h1        1 MOL     -0.001608
     17 H6        -10.1210    5.2360    1.6880 hc        1 MOL      0.020847
     18 H7         -9.3360    3.6730    1.2260 hc        1 MOL      0.020847
     19 N2         -6.8140    3.9100   -0.4340 n         1 MOL     -0.568476
     20 C7         -5.9920    2.8910   -1.1090 c3        1 MOL      0.323336
     21 C8         -5.0330    2.1830   -0.1340 c         1 MOL      0.447478
     22 O5         -4.5280    2.5860    0.8770 o         1 MOL     -0.522212
     23 C9         -5.1920    3.6090   -2.1580 c3        1 MOL     -0.278771
     24 H8         -6.4460    4.1410    0.4760 hn        1 MOL      0.237092
     25 H9         -6.6870    2.2290   -1.6280 h1        1 MOL      0.029626
     26 H10        -4.4560    2.8660   -2.4720 hc        1 MOL      0.080859
     27 H11        -5.7670    3.8390   -3.0570 hc        1 MOL      0.080859
     28 H12        -4.7630    4.4930   -1.6920 hc        1 MOL      0.080859
     29 N3         -4.7530    0.9150   -0.3420 n         1 MOL     -0.353656
     30 C10        -5.2200   -0.0570   -1.4300 c3        1 MOL     -0.064162
     31 C11        -5.4300   -1.4370   -0.7740 c         1 MOL      0.291870
     32 O6         -4.8530   -1.7590    0.2370 o         1 MOL     -0.406328
     33 C12        -4.2210   -0.2870   -2.5920 c3        1 MOL      0.072812
     34 C13        -2.7390   -0.5030   -2.1350 c         1 MOL      0.580871
     35 O7         -2.2850    0.2300   -1.2990 o         1 MOL     -0.672675
     36 O8         -2.1030   -1.5510   -2.5000 o         1 MOL     -0.672675
     37 H13        -4.1700    0.4590    0.3470 hn        1 MOL      0.286180
     38 H14        -6.1060    0.3870   -1.8920 h1        1 MOL      0.051370
     39 H15        -4.2580    0.5940   -3.2410 hc        1 MOL     -0.019870
     40 H16        -4.5220   -1.1020   -3.2480 hc        1 MOL     -0.019870
     41 N4         -6.2560   -2.2920   -1.3860 n         1 MOL     -0.184967
     42 C14        -6.6560   -3.6200   -0.8440 c3        1 MOL     -0.199976
     43 C15        -6.4080   -4.7880   -1.8580 c         1 MOL      0.591806
     44 O9         -7.3400   -5.4050   -2.3230 o         1 MOL     -0.545885
     45 H17        -6.7530   -2.0100   -2.2170 hn        1 MOL      0.258561
     46 H18        -7.6630   -3.5630   -0.4300 h1        1 MOL      0.111696
     47 H19        -6.0940   -3.7380    0.0840 h1        1 MOL      0.111696
     48 N5         -5.1510   -5.0410   -2.2380 n         1 MOL     -0.559601
     49 C16        -3.9200   -4.6120   -1.6060 c3        1 MOL     -0.002210
     50 C17        -3.7440   -5.3270   -0.2530 c         1 MOL      0.624038
     51 O10        -3.7690   -6.5440   -0.1480 o         1 MOL     -0.555751
     52 C18        -2.8450   -4.7310   -2.6650 c3        1 MOL      0.060366
     53 C19        -1.5500   -4.4640   -2.0440 c         1 MOL      0.366570
     54 N6         -0.4870   -4.9460   -2.6820 n         1 MOL     -0.544025
     55 O11        -1.3870   -3.7480   -1.0610 o         1 MOL     -0.529910
     56 H20        -5.0630   -5.8790   -2.7990 hn        1 MOL      0.318302
     57 H21        -3.9270   -3.5360   -1.4530 h1        1 MOL      0.122503
     58 H22        -2.9870   -4.0220   -3.4740 hc        1 MOL      0.014271
     59 H23        -2.7270   -5.7290   -3.0870 hc        1 MOL      0.014271
     60 H24        -0.5650   -5.4960   -3.5270 hn        1 MOL      0.310731
     61 H25         0.4000   -4.9030   -2.2090 hn        1 MOL      0.310731
     62 N7         -3.5820   -4.5390    0.8360 n         1 MOL     -0.216594
     63 C20        -3.4890   -4.9570    2.2110 c3        1 MOL     -0.186511
     64 C21        -2.0440   -5.3930    2.6870 c         1 MOL      0.582869
     65 O12        -1.9460   -6.1600    3.6500 o         1 MOL     -0.564601
     66 H26        -3.6340   -3.5340    0.7400 hn        1 MOL      0.123548
     67 H27        -4.2240   -5.7400    2.4130 h1        1 MOL      0.086453
     68 H28        -3.8460   -4.0940    2.7520 h1        1 MOL      0.086453
     69 N8         -1.0090   -4.9080    1.9800 n         1 MOL     -0.365322
     70 C22         0.3700   -5.0960    2.3240 c3        1 MOL     -0.022233
     71 C23         1.0280   -3.7500    2.1170 c         1 MOL      0.559178
     72 O13         0.4340   -2.7740    1.6430 o         1 MOL     -0.578761
     73 C24         1.0290   -6.0490    1.3360 c3        1 MOL      0.332272
     74 C25         0.5680   -7.4650    1.7270 c3        1 MOL     -0.482918
     75 O14         0.6150   -5.8390    0.0310 oh        1 MOL     -0.576666
     76 H29        -1.2590   -4.3630    1.1620 hn        1 MOL      0.258525
     77 H30         0.4610   -5.4710    3.3410 h1        1 MOL      0.074393
     78 H31         2.1030   -5.8660    1.3980 h1        1 MOL      0.012525
     79 H32         1.0040   -5.0210   -0.2640 ho        1 MOL      0.356824
     80 H33         1.1570   -8.2630    1.2720 hc        1 MOL      0.124459
     81 H34         0.7220   -7.6310    2.7940 hc        1 MOL      0.124459
     82 H35        -0.4740   -7.6140    1.4580 hc        1 MOL      0.124459
     83 N9          2.2270   -3.6430    2.6600 n         1 MOL     -0.443301
     84 C26         3.1680   -2.5820    2.6010 c3        1 MOL      0.300990
     85 C27         4.2580   -2.9710    1.5690 c         1 MOL      0.236647
     86 O15         4.9100   -4.0050    1.7890 o         1 MOL     -0.535575
     87 C28         3.6930   -2.3460    4.0600 c3        1 MOL      0.082312
     88 C29         5.0360   -1.5200    4.1690 c3        1 MOL      0.161598
     89 C30         2.6200   -1.7360    5.0910 c3        1 MOL     -0.455231
     90 C31         4.9190   -0.0310    4.2420 c3        1 MOL     -0.318657
     91 H36         2.7500   -4.4820    2.8710 hn        1 MOL      0.222989
     92 H37         2.7560   -1.6540    2.2210 h1        1 MOL      0.022207
     93 H38         3.9720   -3.3430    4.4280 hc        1 MOL     -0.011195
     94 H39         5.6110   -1.7550    3.2690 hc        1 MOL     -0.030010
     95 H40         5.6630   -2.0090    4.9170 hc        1 MOL     -0.030010
     96 H41         1.7490   -2.3950    5.0770 hc        1 MOL      0.118531
     97 H42         3.1130   -1.6540    6.0640 hc        1 MOL      0.118531
     98 H43         2.3410   -0.7410    4.7430 hc        1 MOL      0.118531
     99 H44         4.2300    0.3270    3.4790 hc        1 MOL      0.064831
    100 H45         4.6310    0.2370    5.2570 hc        1 MOL      0.064831
    101 H46         5.8860    0.4450    4.0830 hc        1 MOL      0.064831
    102 N10         4.2620   -2.2200    0.4990 n         1 MOL     -0.030932
    103 C32         4.8630   -2.5460   -0.7890 c3        1 MOL      0.094871
    104 C33         5.4050   -1.3290   -1.5860 c         1 MOL      0.478709
    105 O16         5.3930   -1.1900   -2.8400 o         1 MOL     -0.508252
    106 C34         3.9040   -3.4410   -1.6010 c3        1 MOL     -0.119677
    107 C35         2.3760   -3.1310   -1.6800 c         1 MOL      0.786704
    108 O17         1.9050   -2.4820   -2.6690 o         1 MOL     -0.751060
    109 O18         1.5540   -3.5390   -0.8660 o         1 MOL     -0.751060
    110 H47         3.6140   -1.4380    0.4580 hn        1 MOL      0.018253
    111 H48         5.7360   -3.1750   -0.6050 h1        1 MOL      0.032373
    112 H49         3.9340   -4.4760   -1.2570 hc        1 MOL      0.018179
    113 H50         4.3490   -3.3200   -2.5960 hc        1 MOL      0.018179
    114 N11         5.8970   -0.3820   -0.8300 n         1 MOL     -0.510951
    115 C36         6.6440    0.8420   -1.3050 c3        1 MOL      0.313766
    116 C37         6.3840    2.1050   -0.4140 c         1 MOL      0.314417
    117 O19         6.3760    1.9610    0.8090 o         1 MOL     -0.503503
    118 C38         8.1670    0.5440   -1.3560 c3        1 MOL     -0.150491
    119 C39         9.0300    1.4350   -2.1760 ca        1 MOL      0.079949
    120 C40         9.7780    2.4880   -1.5910 ca        1 MOL     -0.154148
    121 C41         8.9650    1.2930   -3.5980 ca        1 MOL     -0.154148
    122 C42        10.5710    3.2670   -2.3950 ca        1 MOL     -0.099180
    123 C43         9.8500    2.0220   -4.3610 ca        1 MOL     -0.099180
    124 C44        10.6490    3.0150   -3.7690 ca        1 MOL     -0.158175
    125 H51         5.9480   -0.5740    0.1600 hn        1 MOL      0.262152
    126 H52         6.4250    1.0570   -2.3510 h1        1 MOL      0.019309
    127 H53         8.3450   -0.4570   -1.7460 hc        1 MOL      0.058276
    128 H54         8.5830    0.4730   -0.3500 hc        1 MOL      0.058276
    129 H55         9.7740    2.5820   -0.5190 ha        1 MOL      0.124597
    130 H56         8.3250    0.5450   -4.0510 ha        1 MOL      0.124597
    131 H57        11.1590    4.0640   -1.9490 ha        1 MOL      0.107629
    132 H58         9.8510    1.9080   -5.4360 ha        1 MOL      0.107629
    133 H59        11.3590    3.5750   -4.3730 ha        1 MOL      0.112675
    134 N12         6.2560    3.2930   -1.0400 n         1 MOL      0.065671
    135 C45         6.1990    4.5750   -0.3800 c3        1 MOL     -0.170031
    136 C46         4.9990    4.9530    0.5250 c         1 MOL      0.609085
    137 O20         5.0310    6.0250    1.0910 o         1 MOL     -0.573239
    138 C47         6.5600    5.5810   -1.4430 c3        1 MOL     -0.110284
    139 C48         5.8270    4.9310   -2.6660 c3        1 MOL      0.079687
    140 C49         6.1920    3.4500   -2.4960 c3        1 MOL     -0.414004
    141 H60         7.0410    4.5130    0.3140 h1        1 MOL      0.075172
    142 H61         6.0710    6.5480   -1.3410 hc        1 MOL      0.065634
    143 H62         7.6270    5.6780   -1.6400 hc        1 MOL      0.065634
    144 H63         4.7580    5.1150   -2.5350 hc        1 MOL      0.027634
    145 H64         6.1020    5.4490   -3.5840 hc        1 MOL      0.027634
    146 H65         5.5180    2.7400   -2.9680 h1        1 MOL      0.158404
    147 H66         7.1770    3.2650   -2.9120 h1        1 MOL      0.158404
    148 N13         4.0750    4.0720    0.7010 n         1 MOL     -0.212335
    149 C50         2.8260    4.3790    1.4770 c3        1 MOL     -0.397325
    150 C51         2.9160    4.8040    2.9750 c         1 MOL      0.563191
    151 O21         1.9770    5.4000    3.4880 o         1 MOL     -0.542401
    152 C52         1.8440    3.2680    1.2690 c3        1 MOL     -0.013035
    153 C53         2.2390    1.8670    1.6180 c3        1 MOL     -0.001713
    154 C54         1.3970    0.7940    0.9770 c         1 MOL      0.592002
    155 O22         1.8860   -0.1580    0.2730 o         1 MOL     -0.659932
    156 O23         0.1970    0.8030    1.1470 o         1 MOL     -0.659932
    157 H67         4.2390    3.1250    0.4060 hn        1 MOL      0.175185
    158 H68         2.4180    5.2390    0.9410 h1        1 MOL      0.191319
    159 H69         1.6270    3.2400    0.2030 hc        1 MOL      0.069875
    160 H70         0.9230    3.5450    1.7860 hc        1 MOL      0.069875
    161 H71         2.1160    1.7460    2.6970 hc        1 MOL      0.018632
    162 H72         3.3030    1.7150    1.4700 hc        1 MOL      0.018632
    163 N14         3.9900    4.5380    3.6010 n         1 MOL     -0.203650
    164 C55         4.2850    4.9610    4.9860 c3        1 MOL     -0.084041
    165 H73         4.2750    4.0890    5.6410 h1        1 MOL      0.064112
    166 H74         5.2670    5.4300    5.0210 h1        1 MOL      0.064112
    167 H75         3.5300    5.6720    5.3180 h1        1 MOL      0.064112
    168 H76         4.7300    4.0880    3.0810 hn        1 MOL      0.211457
    169 Ca1        -0.2730   -1.4260   -0.4710 Ca        1 MOL      1.700528
    170 O24         0.1610    0.4460   -2.5420 oh        1 MOL     -0.740359
    171 H77        -0.4280    0.2560   -3.2770 ho        1 MOL      0.367802
    172 H78         1.0450    0.3340   -2.9050 ho        1 MOL      0.367802
    173 O25        -2.4740   -1.4820    1.3080 oh        1 MOL     -0.740359
    174 H79        -3.4030   -1.5000    1.0750 ho        1 MOL      0.367802
    175 H80        -2.4130   -0.8780    2.0350 ho        1 MOL      0.367802
@<TRIPOS>BOND
     1    1    2 1   
     2    1    4 1   
     3    1    5 1   
     4    1    6 1   
     5    2    3 2   
     6    2    7 1   
     7    7    8 1   
     8    7   15 1   
     9    8    9 1   
    10    8   11 1   
    11    8   16 1   
    12    9   10 2   
    13    9   19 1   
    14   11   12 1   
    15   11   17 1   
    16   11   18 1   
    17   12   13 1   
    18   12   14 1   
    19   19   20 1   
    20   19   24 1   
    21   20   21 1   
    22   20   23 1   
    23   20   25 1   
    24   21   22 2   
    25   21   29 1   
    26   23   26 1   
    27   23   27 1   
    28   23   28 1   
    29   29   30 1   
    30   29   37 1   
    31   30   31 1   
    32   30   33 1   
    33   30   38 1   
    34   31   32 2   
    35   31   41 1   
    36   33   34 1   
    37   33   39 1   
    38   33   40 1   
    39   34   35 1   
    40   34   36 1   
    41   41   42 1   
    42   41   45 1   
    43   42   43 1   
    44   42   46 1   
    45   42   47 1   
    46   43   44 2   
    47   43   48 1   
    48   48   49 1   
    49   48   56 1   
    50   49   50 1   
    51   49   52 1   
    52   49   57 1   
    53   50   51 2   
    54   50   62 1   
    55   52   53 1   
    56   52   58 1   
    57   52   59 1   
    58   53   54 1   
    59   53   55 2   
    60   54   60 1   
    61   54   61 1   
    62   62   63 1   
    63   62   66 1   
    64   63   64 1   
    65   63   67 1   
    66   63   68 1   
    67   64   65 2   
    68   64   69 1   
    69   69   70 1   
    70   69   76 1   
    71   70   71 1   
    72   70   73 1   
    73   70   77 1   
    74   71   72 2   
    75   71   83 1   
    76   73   74 1   
    77   73   75 1   
    78   73   78 1   
    79   74   80 1   
    80   74   81 1   
    81   74   82 1   
    82   75   79 1   
    83   83   84 1   
    84   83   91 1   
    85   84   85 1   
    86   84   87 1   
    87   84   92 1   
    88   85   86 2   
    89   85  102 1   
    90   87   88 1   
    91   87   89 1   
    92   87   93 1   
    93   88   90 1   
    94   88   94 1   
    95   88   95 1   
    96   89   96 1   
    97   89   97 1   
    98   89   98 1   
    99   90   99 1   
   100   90  100 1   
   101   90  101 1   
   102  102  103 1   
   103  102  110 1   
   104  103  104 1   
   105  103  106 1   
   106  103  111 1   
   107  104  105 2   
   108  104  114 1   
   109  106  107 1   
   110  106  112 1   
   111  106  113 1   
   112  107  108 1   
   113  107  109 1   
   114  114  115 1   
   115  114  125 1   
   116  115  116 1   
   117  115  118 1   
   118  115  126 1   
   119  116  117 2   
   120  116  134 1   
   121  118  119 1   
   122  118  127 1   
   123  118  128 1   
   124  119  120 ar  
   125  119  121 ar  
   126  120  122 ar  
   127  120  129 1   
   128  121  123 ar  
   129  121  130 1   
   130  122  124 ar  
   131  122  131 1   
   132  123  124 ar  
   133  123  132 1   
   134  124  133 1   
   135  134  135 1   
   136  134  140 1   
   137  135  136 1   
   138  135  138 1   
   139  135  141 1   
   140  136  137 2   
   141  136  148 1   
   142  138  139 1   
   143  138  142 1   
   144  138  143 1   
   145  139  140 1   
   146  139  144 1   
   147  139  145 1   
   148  140  146 1   
   149  140  147 1   
   150  148  149 1   
   151  148  157 1   
   152  149  150 1   
   153  149  152 1   
   154  149  158 1   
   155  150  151 2   
   156  150  163 1   
   157  152  153 1   
   158  152  159 1   
   159  152  160 1   
   160  153  154 1   
   161  153  161 1   
   162  153  162 1   
   163  154  155 1   
   164  154  156 1   
   165  163  164 1   
   166  163  168 1   
   167  164  165 1   
   168  164  166 1   
   169  164  167 1   
   170  170  171 1   
   171  170  172 1   
   172  173  174 1   
   173  173  175 1   
@<TRIPOS>SUBSTRUCTURE
     1 MOL         1 TEMP              0 ****  ****    0 ROOT
