@<TRIPOS>MOLECULE
MOL
  181   177     1     0     0
SMALL
resp


@<TRIPOS>ATOM
      1 C1         -4.3930   -0.5060   -4.2750 c3        1 MOL     -0.369127
      2 C2         -5.3850    0.3170   -3.4850 c         1 MOL      0.595961
      3 O1         -5.0010    1.0560   -2.5430 o         1 MOL     -0.583096
      4 H1         -4.9280   -1.1460   -4.9750 hc        1 MOL      0.086178
      5 H2         -3.7270    0.1570   -4.8260 hc        1 MOL      0.086178
      6 H3         -3.8090   -1.1240   -3.5920 hc        1 MOL      0.086178
      7 N1         -6.6540    0.2200   -3.7540 n         1 MOL     -0.376885
      8 C3         -7.8240    0.7190   -3.0330 c3        1 MOL     -0.033206
      9 C4         -8.0050    0.0930   -1.6670 c         1 MOL      0.536877
     10 O2         -8.6770    0.7270   -0.8240 o         1 MOL     -0.491281
     11 C5         -9.0750    0.4810   -3.9450 c3        1 MOL     -0.010234
     12 C6        -10.4640    0.8450   -3.3090 c         1 MOL      0.681898
     13 O3        -11.2830   -0.1140   -3.1880 o         1 MOL     -0.720651
     14 O4        -10.6570    2.0800   -3.0990 o         1 MOL     -0.720651
     15 H4         -6.8370   -0.4260   -4.5040 hn        1 MOL      0.231683
     16 H5         -7.8190    1.7970   -2.8470 h1        1 MOL      0.115307
     17 H6         -9.2360   -0.5570   -4.2110 hc        1 MOL     -0.049681
     18 H7         -8.9850    0.9790   -4.9170 hc        1 MOL     -0.049681
     19 N2         -7.3570   -0.9840   -1.3450 n         1 MOL     -0.479416
     20 C7         -7.0200   -1.5000    0.0110 c3        1 MOL      0.281418
     21 C8         -6.0570   -0.6090    0.8880 c         1 MOL      0.470625
     22 O5         -6.0240    0.6120    0.7330 o         1 MOL     -0.446468
     23 C9         -8.2260   -2.0910    0.7400 c3        1 MOL     -0.365911
     24 H8         -6.9200   -1.5510   -2.0570 hn        1 MOL      0.242404
     25 H9         -6.3410   -2.3290   -0.1460 h1        1 MOL     -0.003761
     26 H10        -7.9440   -2.2680    1.7720 hc        1 MOL      0.095158
     27 H11        -8.9750   -1.3030    0.6790 hc        1 MOL      0.095158
     28 H12        -8.4730   -3.0110    0.2180 hc        1 MOL      0.095158
     29 N3         -5.4050   -1.2100    1.9300 n         1 MOL     -0.548666
     30 C10        -4.2740   -0.5830    2.7160 c3        1 MOL      0.021124
     31 C11        -4.6170    0.7910    3.3020 c         1 MOL      0.595790
     32 O6         -5.6450    1.0940    3.9050 o         1 MOL     -0.505862
     33 C12        -3.7990   -1.4950    3.7880 c3        1 MOL     -0.197021
     34 C13        -3.6950   -2.9600    3.4200 c         1 MOL      0.738097
     35 O7         -2.5370   -3.3440    3.0630 o         1 MOL     -0.725821
     36 O8         -4.7230   -3.6470    3.4010 o         1 MOL     -0.725821
     37 H13        -5.6260   -2.1890    2.0270 hn        1 MOL      0.401278
     38 H14        -3.4330   -0.3240    2.0700 h1        1 MOL      0.081176
     39 H15        -4.3850   -1.2910    4.6930 hc        1 MOL      0.033042
     40 H16        -2.8020   -1.1790    4.0920 hc        1 MOL      0.033042
     41 N4         -3.5870    1.7020    3.3170 n         1 MOL     -0.424815
     42 C14        -3.8500    3.0790    3.5820 c3        1 MOL     -0.241893
     43 C15        -2.6940    3.9290    3.8880 c         1 MOL      0.623504
     44 O9         -2.8990    5.1610    4.0180 o         1 MOL     -0.567269
     45 H17        -2.6230    1.4330    3.1220 hn        1 MOL      0.231008
     46 H18        -4.4600    3.1130    4.4890 h1        1 MOL      0.148260
     47 H19        -4.3510    3.3900    2.6680 h1        1 MOL      0.148260
     48 N5         -1.4770    3.2910    3.9120 n         1 MOL     -0.353090
     49 C16        -0.1820    3.9680    3.8950 c3        1 MOL     -0.164245
     50 C17         0.1620    4.8490    2.6310 c         1 MOL      0.614169
     51 O10        -0.2100    4.4920    1.5170 o         1 MOL     -0.441472
     52 C18         0.8870    2.9100    4.0460 c3        1 MOL     -0.134783
     53 C19         0.6300    1.9820    5.1780 c         1 MOL      0.602785
     54 N6          1.2030    2.1840    6.3840 n         1 MOL     -0.795259
     55 O11        -0.0550    1.0060    4.9480 o         1 MOL     -0.514079
     56 H20        -1.4720    2.2850    3.8680 hn        1 MOL      0.304640
     57 H21        -0.1870    4.6020    4.7830 h1        1 MOL      0.062195
     58 H22         1.8810    3.3450    4.1630 hc        1 MOL      0.072148
     59 H23         0.9230    2.3150    3.1400 hc        1 MOL      0.072148
     60 H24         1.8780    2.9110    6.5150 hn        1 MOL      0.367122
     61 H25         0.9440    1.5250    7.1110 hn        1 MOL      0.367122
     62 N7          0.7240    6.0630    2.8730 n         1 MOL     -0.466522
     63 C20         1.1570    7.1020    1.9130 c3        1 MOL     -0.141728
     64 C21         2.3640    6.7370    1.0750 c         1 MOL      0.583435
     65 O12         3.3160    5.9660    1.4590 o         1 MOL     -0.514761
     66 H26         0.9710    6.2630    3.8290 hn        1 MOL      0.299351
     67 H27         1.5190    8.0030    2.4060 h1        1 MOL      0.116524
     68 H28         0.2920    7.3450    1.2950 h1        1 MOL      0.116524
     69 N8          2.4570    7.3220   -0.1500 n         1 MOL     -0.425727
     70 C22         3.5610    6.9370   -1.1310 c3        1 MOL     -0.330291
     71 C23         3.4300    5.5280   -1.7200 c         1 MOL      0.523755
     72 O13         4.2990    5.1730   -2.5100 o         1 MOL     -0.524687
     73 C24         3.6580    8.0250   -2.3120 c3        1 MOL      0.535935
     74 C25         2.7940    7.6500   -3.5430 c3        1 MOL     -0.316285
     75 O14         3.2780    9.2700   -1.8590 oh        1 MOL     -0.611544
     76 H29         1.7880    7.9750   -0.5160 hn        1 MOL      0.251074
     77 H30         4.5420    7.0760   -0.6690 h1        1 MOL      0.175965
     78 H31         4.7000    8.1260   -2.6150 h1        1 MOL      0.006307
     79 H32         2.3700    9.1160   -1.5600 ho        1 MOL      0.356252
     80 H33         2.5500    8.5190   -4.1570 hc        1 MOL      0.070615
     81 H34         3.4090    6.9870   -4.1510 hc        1 MOL      0.070615
     82 H35         1.8910    7.1550   -3.2000 hc        1 MOL      0.070615
     83 N9          2.4020    4.6880   -1.2700 n         1 MOL     -0.094905
     84 C26         2.1950    3.3870   -1.8680 c3        1 MOL     -0.201590
     85 C27         1.9410    2.2910   -0.8280 c         1 MOL      0.472880
     86 O15         1.4800    2.5210    0.2780 o         1 MOL     -0.461264
     87 C28         1.0150    3.4660   -2.8360 c3        1 MOL      0.247284
     88 C29        -0.2610    4.0970   -2.2800 c3        1 MOL      0.262540
     89 C30         1.3530    4.1720   -4.2060 c3        1 MOL     -0.440001
     90 C31        -1.5520    4.1300   -3.1870 c3        1 MOL     -0.531248
     91 H36         1.7560    5.0800   -0.5870 hn        1 MOL      0.053954
     92 H37         3.1370    3.1200   -2.3580 h1        1 MOL      0.117227
     93 H38         0.7370    2.4530   -3.1050 hc        1 MOL     -0.011049
     94 H39        -0.1190    5.1810   -2.2390 hc        1 MOL     -0.017500
     95 H40        -0.5170    3.6970   -1.3080 hc        1 MOL     -0.017500
     96 H41         2.4140    4.0620   -4.4210 hc        1 MOL      0.094802
     97 H42         0.7950    3.6900   -5.0030 hc        1 MOL      0.094802
     98 H43         1.1810    5.2410   -4.1470 hc        1 MOL      0.094802
     99 H44        -1.5570    3.2170   -3.7770 hc        1 MOL      0.139103
    100 H45        -2.4100    4.1830   -2.5180 hc        1 MOL      0.139103
    101 H46        -1.5810    5.0530   -3.7590 hc        1 MOL      0.139103
    102 N10         2.1380    1.0070   -1.2160 n         1 MOL     -0.323238
    103 C32         1.5910   -0.1980   -0.4540 c3        1 MOL      0.026280
    104 C33         2.6440   -1.2020   -0.0980 c         1 MOL      0.581861
    105 O16         2.4850   -2.4400   -0.1400 o         1 MOL     -0.517690
    106 C34         0.4780   -0.8280   -1.3490 c3        1 MOL     -0.147279
    107 C35        -0.3400   -1.8840   -0.6360 c         1 MOL      0.901967
    108 O17        -0.5580   -1.8930    0.6240 o         1 MOL     -0.839691
    109 O18        -0.8140   -2.8570   -1.2430 o         1 MOL     -0.839691
    110 H47         2.5050    0.8160   -2.1370 hn        1 MOL      0.197086
    111 H48         1.2490    0.1620    0.5090 h1        1 MOL      0.108535
    112 H49         0.9620   -1.3100   -2.1940 hc        1 MOL      0.048961
    113 H50        -0.1770   -0.0610   -1.7470 hc        1 MOL      0.048961
    114 N11         3.7940   -0.6650    0.3830 n         1 MOL     -0.620354
    115 C36         4.9340   -1.3630    1.0310 c3        1 MOL      0.669514
    116 C37         5.6670   -2.4200    0.1310 c         1 MOL      0.066265
    117 O19         5.7440   -2.1860   -1.0990 o         1 MOL     -0.394355
    118 C38         5.8450   -0.3690    1.6730 c3        1 MOL     -0.332130
    119 C39         6.9110    0.2700    0.7510 ca        1 MOL      0.191038
    120 C40         8.2690   -0.0670    0.8480 ca        1 MOL     -0.197213
    121 C41         6.5460    1.2580   -0.1930 ca        1 MOL     -0.197213
    122 C42         9.2120    0.5820    0.0090 ca        1 MOL     -0.107850
    123 C43         7.4740    1.8790   -1.0700 ca        1 MOL     -0.107850
    124 C44         8.7770    1.5120   -0.9800 ca        1 MOL     -0.095346
    125 H51         3.8690    0.2900    0.0540 hn        1 MOL      0.244653
    126 H52         4.4420   -1.8770    1.8510 h1        1 MOL     -0.082633
    127 H53         6.3340   -0.8180    2.5360 hc        1 MOL      0.078404
    128 H54         5.2040    0.4230    2.0680 hc        1 MOL      0.078404
    129 H55         8.6020   -0.8120    1.5620 ha        1 MOL      0.117405
    130 H56         5.5060    1.5460   -0.2990 ha        1 MOL      0.117405
    131 H57        10.2540    0.3360    0.1250 ha        1 MOL      0.112804
    132 H58         7.1660    2.6510   -1.7610 ha        1 MOL      0.112804
    133 H59         9.5000    1.8780   -1.7100 ha        1 MOL      0.099104
    134 N12         6.0450   -3.5930    0.6270 n         1 MOL     -0.078936
    135 C45         6.4360   -4.7250   -0.2600 c3        1 MOL      0.202334
    136 C46         5.4140   -4.9810   -1.4470 c         1 MOL      0.248890
    137 O20         5.8860   -5.4360   -2.5060 o         1 MOL     -0.508759
    138 C47         6.4260   -5.9190    0.6880 c3        1 MOL     -0.096900
    139 C48         6.6580   -5.3470    2.0690 c3        1 MOL     -0.094886
    140 C49         5.8710   -4.0090    2.0380 c3        1 MOL     -0.066917
    141 H60         7.4010   -4.5800   -0.7460 h1        1 MOL      0.031190
    142 H61         5.4230   -6.3440    0.6710 hc        1 MOL      0.056771
    143 H62         7.2260   -6.5840    0.3490 hc        1 MOL      0.056771
    144 H63         6.2450   -6.0490    2.7970 hc        1 MOL      0.043874
    145 H64         7.7200   -5.1620    2.2560 hc        1 MOL      0.043874
    146 H65         4.8290   -4.1610    2.3480 h1        1 MOL      0.070508
    147 H66         6.4370   -3.3520    2.6990 h1        1 MOL      0.070508
    148 N13         4.1210   -4.6660   -1.3020 n         1 MOL     -0.055955
    149 C50         3.1100   -4.7620   -2.3360 c3        1 MOL     -0.375570
    150 C51         3.1090   -3.6070   -3.2800 c         1 MOL      0.470113
    151 O21         2.3430   -3.6930   -4.2880 o         1 MOL     -0.571458
    152 C52         1.7410   -5.2030   -1.8210 c3        1 MOL      0.236508
    153 C53         1.6990   -6.3770   -0.7770 c3        1 MOL     -0.540713
    154 C54         0.2770   -6.7860   -0.3750 c         1 MOL      0.819625
    155 O22         0.0410   -7.8860    0.2910 o         1 MOL     -0.755824
    156 O23        -0.6920   -6.0510   -0.6030 o         1 MOL     -0.755824
    157 H67         3.7660   -4.1770   -0.4850 hn        1 MOL      0.161891
    158 H68         3.5110   -5.6770   -2.7840 h1        1 MOL      0.165831
    159 H69         1.0690   -5.3180   -2.6650 hc        1 MOL      0.033687
    160 H70         1.3100   -4.3280   -1.3330 hc        1 MOL      0.033687
    161 H71         2.2120   -6.1310    0.1510 hc        1 MOL      0.118724
    162 H72         2.1340   -7.2300   -1.3000 hc        1 MOL      0.118724
    163 N14         3.8640   -2.5540   -3.1800 n         1 MOL      0.028434
    164 C55         4.0940   -1.5470   -4.2760 c3        1 MOL     -0.237169
    165 H73         4.7030   -0.7270   -3.8930 h1        1 MOL      0.090046
    166 H74         4.6130   -2.0260   -5.1060 h1        1 MOL      0.090046
    167 H75         3.1360   -1.1580   -4.6190 h1        1 MOL      0.090046
    168 H76         4.4230   -2.3940   -2.3510 hn        1 MOL      0.073368
    169 Ca1        -1.6260   -4.1800    0.8070 Ca        1 MOL      1.713942
    170 O24        -3.8110   -2.8540   -0.2540 oh        1 MOL     -0.807404
    171 H77        -4.2300   -3.3050   -0.9760 ho        1 MOL      0.399664
    172 H78        -3.5270   -2.0160   -0.6110 ho        1 MOL      0.399664
    173 O25        -1.3290   -6.0970    2.7260 oh        1 MOL     -0.807404
    174 H79        -2.0440   -6.0950    3.3690 ho        1 MOL      0.399664
    175 H80        -0.9870   -6.9920    2.7700 ho        1 MOL      0.399664
    176 O26        -3.6370   -5.8270    0.0840 oh        1 MOL     -0.807404
    177 H81        -3.5690   -5.6880   -0.8630 ho        1 MOL      0.399664
    178 H82        -3.6490   -6.7790    0.1870 ho        1 MOL      0.399664
    179 O27         0.9730   -4.2620    1.6200 oh        1 MOL     -0.807404
    180 H83         1.6040   -3.5880    1.3610 ho        1 MOL      0.399664
    181 H84         1.2970   -4.5750    2.4570 ho        1 MOL      0.399664
@<TRIPOS>BOND
     1    1    2 1   
     2    1    4 1   
     3    1    5 1   
     4    1    6 1   
     5    2    3 2   
     6    2    7 1   
     7    7    8 1   
     8    7   15 1   
     9    8    9 1   
    10    8   11 1   
    11    8   16 1   
    12    9   10 2   
    13    9   19 1   
    14   11   12 1   
    15   11   17 1   
    16   11   18 1   
    17   12   13 1   
    18   12   14 1   
    19   19   20 1   
    20   19   24 1   
    21   20   21 1   
    22   20   23 1   
    23   20   25 1   
    24   21   22 2   
    25   21   29 1   
    26   23   26 1   
    27   23   27 1   
    28   23   28 1   
    29   29   30 1   
    30   29   37 1   
    31   30   31 1   
    32   30   33 1   
    33   30   38 1   
    34   31   32 2   
    35   31   41 1   
    36   33   34 1   
    37   33   39 1   
    38   33   40 1   
    39   34   35 1   
    40   34   36 1   
    41   41   42 1   
    42   41   45 1   
    43   42   43 1   
    44   42   46 1   
    45   42   47 1   
    46   43   44 2   
    47   43   48 1   
    48   48   49 1   
    49   48   56 1   
    50   49   50 1   
    51   49   52 1   
    52   49   57 1   
    53   50   51 2   
    54   50   62 1   
    55   52   53 1   
    56   52   58 1   
    57   52   59 1   
    58   53   54 1   
    59   53   55 2   
    60   54   60 1   
    61   54   61 1   
    62   62   63 1   
    63   62   66 1   
    64   63   64 1   
    65   63   67 1   
    66   63   68 1   
    67   64   65 2   
    68   64   69 1   
    69   69   70 1   
    70   69   76 1   
    71   70   71 1   
    72   70   73 1   
    73   70   77 1   
    74   71   72 2   
    75   71   83 1   
    76   73   74 1   
    77   73   75 1   
    78   73   78 1   
    79   74   80 1   
    80   74   81 1   
    81   74   82 1   
    82   75   79 1   
    83   83   84 1   
    84   83   91 1   
    85   84   85 1   
    86   84   87 1   
    87   84   92 1   
    88   85   86 2   
    89   85  102 1   
    90   87   88 1   
    91   87   89 1   
    92   87   93 1   
    93   88   90 1   
    94   88   94 1   
    95   88   95 1   
    96   89   96 1   
    97   89   97 1   
    98   89   98 1   
    99   90   99 1   
   100   90  100 1   
   101   90  101 1   
   102  102  103 1   
   103  102  110 1   
   104  103  104 1   
   105  103  106 1   
   106  103  111 1   
   107  104  105 2   
   108  104  114 1   
   109  106  107 1   
   110  106  112 1   
   111  106  113 1   
   112  107  108 1   
   113  107  109 1   
   114  114  115 1   
   115  114  125 1   
   116  115  116 1   
   117  115  118 1   
   118  115  126 1   
   119  116  117 2   
   120  116  134 1   
   121  118  119 1   
   122  118  127 1   
   123  118  128 1   
   124  119  120 ar  
   125  119  121 ar  
   126  120  122 ar  
   127  120  129 1   
   128  121  123 ar  
   129  121  130 1   
   130  122  124 ar  
   131  122  131 1   
   132  123  124 ar  
   133  123  132 1   
   134  124  133 1   
   135  134  135 1   
   136  134  140 1   
   137  135  136 1   
   138  135  138 1   
   139  135  141 1   
   140  136  137 2   
   141  136  148 1   
   142  138  139 1   
   143  138  142 1   
   144  138  143 1   
   145  139  140 1   
   146  139  144 1   
   147  139  145 1   
   148  140  146 1   
   149  140  147 1   
   150  148  149 1   
   151  148  157 1   
   152  149  150 1   
   153  149  152 1   
   154  149  158 1   
   155  150  151 2   
   156  150  163 1   
   157  152  153 1   
   158  152  159 1   
   159  152  160 1   
   160  153  154 1   
   161  153  161 1   
   162  153  162 1   
   163  154  155 1   
   164  154  156 1   
   165  163  164 1   
   166  163  168 1   
   167  164  165 1   
   168  164  166 1   
   169  164  167 1   
   170  170  171 1   
   171  170  172 1   
   172  173  174 1   
   173  173  175 1   
   174  176  177 1   
   175  176  178 1   
   176  179  180 1   
   177  179  181 1   
@<TRIPOS>SUBSTRUCTURE
     1 MOL         1 TEMP              0 ****  ****    0 ROOT
