@<TRIPOS>MOLECULE
MOL
  192   187     1     0     0
SMALL
resp


@<TRIPOS>ATOM
      1 C1         11.8870    5.1310   -2.9220 c3        1 MOL     -0.252764
      2 C2         11.6870    4.0120   -1.8980 c         1 MOL      0.787574
      3 O1         12.6360    3.3690   -1.4580 o         1 MOL     -0.579747
      4 H1         12.7550    5.7270   -2.6430 hc        1 MOL      0.065141
      5 H2         12.0460    4.6980   -3.9090 hc        1 MOL      0.065141
      6 H3         11.0010    5.7670   -2.9430 hc        1 MOL      0.065141
      7 N1         10.3900    3.7700   -1.5300 n         1 MOL     -0.492038
      8 C3         10.0720    2.9480   -0.3920 c3        1 MOL     -0.597121
      9 C4          8.7270    2.1990   -0.6210 c         1 MOL      0.901537
     10 O2          7.6580    2.7260   -0.8500 o         1 MOL     -0.707970
     11 C5         10.2460    3.7070    0.8990 c3        1 MOL     -0.037620
     12 C6          9.7610    5.1670    0.7280 c         1 MOL      0.666272
     13 O3         10.5870    6.0880    0.7020 o         1 MOL     -0.696901
     14 O4          8.5480    5.4740    0.7000 o         1 MOL     -0.696901
     15 H4          9.6520    4.2930   -1.9880 hn        1 MOL      0.281959
     16 H5         10.8020    2.1420   -0.3920 h1        1 MOL      0.218193
     17 H6         11.3110    3.7060    1.0910 hc        1 MOL      0.088895
     18 H7          9.7180    3.2350    1.7330 hc        1 MOL      0.088895
     19 N2          8.8670    0.8480   -0.5430 n         1 MOL     -0.502805
     20 C7          7.6810    0.0060   -0.6370 c3        1 MOL     -0.067365
     21 C8          6.7950    0.0670    0.5400 c         1 MOL      0.784772
     22 O5          7.2790   -0.0760    1.6790 o         1 MOL     -0.558997
     23 C9          8.1720   -1.4750   -0.8110 c3        1 MOL     -0.216251
     24 C10         7.1070   -2.6230   -0.9800 c3        1 MOL      0.121869
     25 C11         7.6200   -4.0550   -0.6780 c3        1 MOL      0.023620
     26 C12         6.4550   -4.9340   -1.1840 c3        1 MOL      0.091067
     27 N3          6.8280   -6.3490   -1.1780 n4        1 MOL     -0.344235
     28 H8          9.7210    0.3490   -0.3500 hn        1 MOL      0.304205
     29 H9          7.1760    0.2440   -1.5740 h1        1 MOL      0.095943
     30 H10         8.7750   -1.6370    0.0910 hc        1 MOL      0.065648
     31 H11         8.7440   -1.5510   -1.7440 hc        1 MOL      0.065648
     32 H12         6.8360   -2.5330   -2.0320 hc        1 MOL     -0.012555
     33 H13         6.3020   -2.3100   -0.3210 hc        1 MOL     -0.012555
     34 H14         7.8170   -4.1660    0.3890 hc        1 MOL      0.027199
     35 H15         8.5570   -4.1780   -1.2110 hc        1 MOL      0.027199
     36 H16         6.2620   -4.6580   -2.2190 hx        1 MOL      0.047919
     37 H17         5.5660   -4.7480   -0.5870 hx        1 MOL      0.047919
     38 H18         5.9570   -6.8620   -1.1210 hn        1 MOL      0.295309
     39 H19         7.4570   -6.6620   -1.8950 hn        1 MOL      0.295309
     40 H20         7.3440   -6.6380   -0.3540 hn        1 MOL      0.295309
     41 N4          5.4970    0.2660    0.3400 n         1 MOL     -0.495040
     42 C13         4.4140    0.2290    1.3370 c3        1 MOL      0.104875
     43 C14         3.1080   -0.1050    0.6220 c         1 MOL      0.483316
     44 O6          2.9420    0.2010   -0.5150 o         1 MOL     -0.514220
     45 C15         4.4960    1.4520    2.3280 c3        1 MOL     -0.144871
     46 C16         4.8780    2.7940    1.7100 c         1 MOL      0.591283
     47 O7          5.7660    3.4870    2.2480 o         1 MOL     -0.683986
     48 O8          4.3970    3.1450    0.5920 o         1 MOL     -0.683986
     49 H21         5.1510    0.3820   -0.6020 hn        1 MOL      0.184503
     50 H22         4.7470   -0.6350    1.9170 h1        1 MOL      0.061341
     51 H23         5.2400    1.1910    3.0820 hc        1 MOL      0.079938
     52 H24         3.4880    1.5020    2.7580 hc        1 MOL      0.079938
     53 N5          2.0460   -0.6790    1.1570 n         1 MOL     -0.347799
     54 C17         1.9080   -1.2480    2.4860 c3        1 MOL      0.022277
     55 C18         2.5320   -2.6890    2.6270 c         1 MOL      0.527119
     56 O9          3.3320   -3.1540    1.7860 o         1 MOL     -0.520275
     57 H25         1.2370   -0.8240    0.5730 hn        1 MOL      0.274260
     58 H26         0.8560   -1.3640    2.7670 h1        1 MOL      0.024932
     59 H27         2.4660   -0.5970    3.1600 h1        1 MOL      0.024932
     60 N6          2.1480   -3.4060    3.7290 n         1 MOL     -0.372052
     61 C19         2.4010   -4.7800    4.1360 c3        1 MOL     -0.074324
     62 C20         1.7100   -5.8350    3.2910 c         1 MOL      0.434798
     63 O10         2.1510   -7.0070    3.1000 o         1 MOL     -0.518545
     64 C21         2.2300   -5.0670    5.6370 c3        1 MOL     -0.056077
     65 C22         2.9470   -4.1050    6.5870 c         1 MOL      0.721316
     66 O11         2.5000   -4.0510    7.7180 o         1 MOL     -0.679220
     67 O12         3.9860   -3.5650    6.2520 o         1 MOL     -0.679220
     68 H28         1.7150   -2.8510    4.4600 hn        1 MOL      0.261247
     69 H29         3.4680   -4.9310    3.9640 h1        1 MOL      0.094255
     70 H30         2.5190   -6.0950    5.8360 hc        1 MOL      0.016083
     71 H31         1.2080   -4.9660    5.9940 hc        1 MOL      0.016083
     72 N7          0.5670   -5.4880    2.6140 n         1 MOL     -0.316747
     73 C23        -0.0420   -6.2970    1.5490 c3        1 MOL     -0.001566
     74 C24         0.2300   -5.9210    0.0470 c         1 MOL      0.506405
     75 O13        -0.1730   -6.6260   -0.8980 o         1 MOL     -0.573367
     76 H32         0.2520   -4.5530    2.8070 hn        1 MOL      0.223364
     77 H33        -1.1270   -6.2650    1.5740 h1        1 MOL      0.074238
     78 H34         0.2520   -7.3310    1.7410 h1        1 MOL      0.074238
     79 N8          0.8310   -4.7770   -0.2190 n         1 MOL     -0.291089
     80 C25         0.9440   -4.2400   -1.5980 c3        1 MOL      0.169779
     81 C26         0.2490   -2.8350   -1.6610 c         1 MOL      0.438227
     82 O14         0.0960   -2.1790   -0.6500 o         1 MOL     -0.446197
     83 C27         2.3460   -4.1720   -2.1760 c3        1 MOL      0.270817
     84 C28         2.9390   -5.6310   -2.4390 c3        1 MOL     -0.540822
     85 O15         2.3020   -3.6150   -3.4810 oh        1 MOL     -0.522078
     86 H35         1.0860   -4.1240    0.5050 hn        1 MOL      0.132269
     87 H36         0.3440   -4.8410   -2.2710 h1        1 MOL      0.047885
     88 H37         2.9040   -3.5210   -1.5020 h1        1 MOL     -0.025153
     89 H38         3.1420   -3.1560   -3.5530 ho        1 MOL      0.359899
     90 H39         2.1920   -6.2810   -2.8890 hc        1 MOL      0.147791
     91 H40         3.8210   -5.6290   -3.0950 hc        1 MOL      0.147791
     92 H41         3.1310   -6.0900   -1.4770 hc        1 MOL      0.147791
     93 N9         -0.1810   -2.4440   -2.8430 n         1 MOL     -0.453832
     94 C29        -0.5340   -1.0290   -3.0960 c3        1 MOL      0.094839
     95 C30        -1.7780   -0.5380   -2.3530 c         1 MOL      0.353515
     96 O16        -1.8540    0.6060   -1.8560 o         1 MOL     -0.468764
     97 C31        -0.6420   -0.6550   -4.5950 c3        1 MOL      0.199640
     98 C32         0.5990   -1.1350   -5.4420 c3        1 MOL      0.132669
     99 C33        -0.9070    0.8240   -4.8170 c3        1 MOL     -0.340792
    100 C34         1.9620   -0.6970   -4.9240 c3        1 MOL     -0.253237
    101 H42         0.1020   -3.0450   -3.6020 hn        1 MOL      0.304460
    102 H43         0.2490   -0.4390   -2.6100 h1        1 MOL      0.054100
    103 H44        -1.4440   -1.2880   -4.9910 hc        1 MOL     -0.031939
    104 H45         0.3690   -0.8590   -6.4720 hc        1 MOL     -0.034437
    105 H46         0.5420   -2.2220   -5.4550 hc        1 MOL     -0.034437
    106 H47        -1.9150    1.1180   -4.5400 hc        1 MOL      0.096101
    107 H48        -0.2010    1.3810   -4.2000 hc        1 MOL      0.096101
    108 H49        -0.8320    1.1110   -5.8640 hc        1 MOL      0.096101
    109 H50         2.0250    0.3590   -5.1680 hc        1 MOL      0.053547
    110 H51         1.9370   -0.8400   -3.8400 hc        1 MOL      0.053547
    111 H52         2.7690   -1.2540   -5.4130 hc        1 MOL      0.053547
    112 N10        -2.7030   -1.5380   -2.2290 n         1 MOL     -0.373456
    113 C35        -3.8980   -1.4270   -1.2780 c3        1 MOL     -0.029359
    114 C36        -5.1640   -2.1430   -1.7910 c         1 MOL      0.605173
    115 O17        -5.1290   -3.1160   -2.6000 o         1 MOL     -0.538419
    116 C37        -3.4970   -2.1460    0.0710 c3        1 MOL      0.372004
    117 C38        -2.9420   -3.5640   -0.1340 c3        1 MOL     -0.463211
    118 O18        -2.4110   -1.4790    0.6750 oh        1 MOL     -0.640407
    119 H53        -2.4590   -2.4490   -2.6160 hn        1 MOL      0.224622
    120 H54        -4.1950   -0.4100   -1.0570 h1        1 MOL      0.109602
    121 H55        -4.3820   -2.1910    0.7040 h1        1 MOL      0.048044
    122 H56        -1.6130   -1.6560    0.1600 ho        1 MOL      0.421803
    123 H57        -2.6950   -4.0350    0.8150 hc        1 MOL      0.108977
    124 H58        -3.7310   -4.0800   -0.6930 hc        1 MOL      0.108977
    125 H59        -2.0430   -3.6400   -0.7360 hc        1 MOL      0.108977
    126 N11        -6.3880   -1.7040   -1.4300 n         1 MOL     -0.568250
    127 C39        -7.6430   -2.0870   -2.1410 c3        1 MOL      0.047796
    128 C40        -8.5630   -0.8650   -2.0330 c         1 MOL      0.579422
    129 O19        -9.1190   -0.4890   -3.0420 o         1 MOL     -0.548588
    130 C41        -8.1740   -3.4550   -1.7080 c3        1 MOL      0.258695
    131 C42        -9.5910   -3.8630   -2.1540 c3        1 MOL     -0.376942
    132 O20        -8.2850   -3.3350   -0.2410 oh        1 MOL     -0.654855
    133 H60        -6.5490   -1.0900   -0.6460 hn        1 MOL      0.275263
    134 H61        -7.3950   -2.2360   -3.1960 h1        1 MOL      0.094997
    135 H62        -7.5000   -4.2850   -1.8940 h1        1 MOL      0.067336
    136 H63        -8.4890   -4.2170    0.0650 ho        1 MOL      0.406043
    137 H64        -9.5790   -4.3290   -3.1490 hc        1 MOL      0.102551
    138 H65        -9.9270   -4.5710   -1.3960 hc        1 MOL      0.102551
    139 H66       -10.2350   -2.9920   -2.1410 hc        1 MOL      0.102551
    140 N12        -8.7770   -0.3210   -0.8350 n         1 MOL     -0.398893
    141 C43        -9.6750    0.7890   -0.5450 c3        1 MOL     -0.058591
    142 C44        -9.2070    1.6630    0.5930 c         1 MOL      0.549694
    143 O21        -8.5330    1.2680    1.5160 o         1 MOL     -0.497472
    144 C45       -11.0730    0.2650   -0.3790 c3        1 MOL     -0.094343
    145 C46       -12.0020    1.4830   -0.0420 c3        1 MOL     -0.171191
    146 C47       -13.4860    1.0240    0.0970 c3        1 MOL     -0.152327
    147 C48       -13.8040    0.1000    1.2850 c3        1 MOL      0.152310
    148 N13       -15.1390   -0.4430    1.2970 n4        1 MOL     -0.311754
    149 H67        -8.3830   -0.7040    0.0080 hn        1 MOL      0.286790
    150 H68        -9.5960    1.4570   -1.4110 h1        1 MOL      0.103019
    151 H69       -11.1350   -0.5520    0.3470 hc        1 MOL      0.074947
    152 H70       -11.3570   -0.1460   -1.3510 hc        1 MOL      0.074947
    153 H71       -12.0030    2.1230   -0.9200 hc        1 MOL      0.110442
    154 H72       -11.6560    1.9570    0.8830 hc        1 MOL      0.110442
    155 H73       -13.7510    0.5720   -0.8560 hc        1 MOL      0.072579
    156 H74       -14.0540    1.9380    0.2760 hc        1 MOL      0.072579
    157 H75       -13.6100    0.5520    2.2640 hx        1 MOL      0.047936
    158 H76       -13.1340   -0.7490    1.1750 hx        1 MOL      0.047936
    159 H77       -15.2650   -1.0650    2.0880 hn        1 MOL      0.255843
    160 H78       -15.7480    0.3530    1.3750 hn        1 MOL      0.255843
    161 H79       -15.4040   -1.0160    0.5060 hn        1 MOL      0.255843
    162 N14        -9.3620    2.9680    0.3640 n         1 MOL     -0.406375
    163 C49        -8.9230    3.9870    1.3460 c3        1 MOL      0.070225
    164 C50        -7.4080    4.1140    1.5400 c         1 MOL      0.333378
    165 O22        -6.8990    4.1840    2.6810 o         1 MOL     -0.523665
    166 C51        -9.5310    5.3450    1.0490 c3        1 MOL      0.135340
    167 C52        -9.3470    6.4080    2.1520 c3        1 MOL     -0.249451
    168 C53        -9.9100    7.7690    1.7920 c         1 MOL      0.723475
    169 O23       -10.7590    8.2930    2.5590 o         1 MOL     -0.658230
    170 O24        -9.6810    8.2150    0.6700 o         1 MOL     -0.658230
    171 H80        -9.7720    3.3270   -0.4840 hn        1 MOL      0.225260
    172 H81        -9.3080    3.6150    2.2910 h1        1 MOL      0.069988
    173 H82       -10.5830    5.0850    0.9900 hc        1 MOL     -0.019431
    174 H83        -9.1950    5.5820    0.0430 hc        1 MOL     -0.019431
    175 H84        -8.2850    6.6020    2.2970 hc        1 MOL      0.056682
    176 H85        -9.8800    6.1050    3.0550 hc        1 MOL      0.056682
    177 N15        -6.5240    4.0880    0.5280 n         1 MOL     -0.223332
    178 C54        -6.7430    4.0960   -0.9170 c3        1 MOL     -0.135751
    179 H86        -6.0660    4.8140   -1.3820 h1        1 MOL      0.075555
    180 H87        -6.5510    3.1020   -1.3200 h1        1 MOL      0.075555
    181 H88        -7.7730    4.3810   -1.1270 h1        1 MOL      0.075555
    182 H89        -5.5420    4.1050    0.7840 hn        1 MOL      0.267095
    183 Ca1         6.1390    4.9780   -0.0490 Ca        1 MOL      1.717349
    184 O25         3.7370    6.2160   -0.1540 oh        1 MOL     -0.843495
    185 H90         3.3790    7.0680   -0.3880 ho        1 MOL      0.422470
    186 H91         2.9710    5.6780    0.0580 ho        1 MOL      0.422470
    187 O26         5.8200    6.5530    2.0090 oh        1 MOL     -0.843495
    188 H92         5.5830    7.4810    2.0170 ho        1 MOL      0.422470
    189 H93         6.2140    6.4130    2.8690 ho        1 MOL      0.422470
    190 O27         4.8980    3.9860   -2.4620 oh        1 MOL     -0.843495
    191 H94         4.1960    3.3300   -2.4010 ho        1 MOL      0.422470
    192 H95         5.4740    3.6640   -3.1610 ho        1 MOL      0.422470
@<TRIPOS>BOND
     1    1    2 1   
     2    1    4 1   
     3    1    5 1   
     4    1    6 1   
     5    2    3 2   
     6    2    7 1   
     7    7    8 1   
     8    7   15 1   
     9    8    9 1   
    10    8   11 1   
    11    8   16 1   
    12    9   10 2   
    13    9   19 1   
    14   11   12 1   
    15   11   17 1   
    16   11   18 1   
    17   12   13 1   
    18   12   14 1   
    19   19   20 1   
    20   19   28 1   
    21   20   21 1   
    22   20   23 1   
    23   20   29 1   
    24   21   22 2   
    25   21   41 1   
    26   23   24 1   
    27   23   30 1   
    28   23   31 1   
    29   24   25 1   
    30   24   32 1   
    31   24   33 1   
    32   25   26 1   
    33   25   34 1   
    34   25   35 1   
    35   26   27 1   
    36   26   36 1   
    37   26   37 1   
    38   27   38 1   
    39   27   39 1   
    40   27   40 1   
    41   41   42 1   
    42   41   49 1   
    43   42   43 1   
    44   42   45 1   
    45   42   50 1   
    46   43   44 2   
    47   43   53 1   
    48   45   46 1   
    49   45   51 1   
    50   45   52 1   
    51   46   47 1   
    52   46   48 1   
    53   53   54 1   
    54   53   57 1   
    55   54   55 1   
    56   54   58 1   
    57   54   59 1   
    58   55   56 2   
    59   55   60 1   
    60   60   61 1   
    61   60   68 1   
    62   61   62 1   
    63   61   64 1   
    64   61   69 1   
    65   62   63 2   
    66   62   72 1   
    67   64   65 1   
    68   64   70 1   
    69   64   71 1   
    70   65   66 1   
    71   65   67 1   
    72   72   73 1   
    73   72   76 1   
    74   73   74 1   
    75   73   77 1   
    76   73   78 1   
    77   74   75 2   
    78   74   79 1   
    79   79   80 1   
    80   79   86 1   
    81   80   81 1   
    82   80   83 1   
    83   80   87 1   
    84   81   82 2   
    85   81   93 1   
    86   83   84 1   
    87   83   85 1   
    88   83   88 1   
    89   84   90 1   
    90   84   91 1   
    91   84   92 1   
    92   85   89 1   
    93   93   94 1   
    94   93  101 1   
    95   94   95 1   
    96   94   97 1   
    97   94  102 1   
    98   95   96 2   
    99   95  112 1   
   100   97   98 1   
   101   97   99 1   
   102   97  103 1   
   103   98  100 1   
   104   98  104 1   
   105   98  105 1   
   106   99  106 1   
   107   99  107 1   
   108   99  108 1   
   109  100  109 1   
   110  100  110 1   
   111  100  111 1   
   112  112  113 1   
   113  112  119 1   
   114  113  114 1   
   115  113  116 1   
   116  113  120 1   
   117  114  115 2   
   118  114  126 1   
   119  116  117 1   
   120  116  118 1   
   121  116  121 1   
   122  117  123 1   
   123  117  124 1   
   124  117  125 1   
   125  118  122 1   
   126  126  127 1   
   127  126  133 1   
   128  127  128 1   
   129  127  130 1   
   130  127  134 1   
   131  128  129 2   
   132  128  140 1   
   133  130  131 1   
   134  130  132 1   
   135  130  135 1   
   136  131  137 1   
   137  131  138 1   
   138  131  139 1   
   139  132  136 1   
   140  140  141 1   
   141  140  149 1   
   142  141  142 1   
   143  141  144 1   
   144  141  150 1   
   145  142  143 2   
   146  142  162 1   
   147  144  145 1   
   148  144  151 1   
   149  144  152 1   
   150  145  146 1   
   151  145  153 1   
   152  145  154 1   
   153  146  147 1   
   154  146  155 1   
   155  146  156 1   
   156  147  148 1   
   157  147  157 1   
   158  147  158 1   
   159  148  159 1   
   160  148  160 1   
   161  148  161 1   
   162  162  163 1   
   163  162  171 1   
   164  163  164 1   
   165  163  166 1   
   166  163  172 1   
   167  164  165 2   
   168  164  177 1   
   169  166  167 1   
   170  166  173 1   
   171  166  174 1   
   172  167  168 1   
   173  167  175 1   
   174  167  176 1   
   175  168  169 1   
   176  168  170 1   
   177  177  178 1   
   178  177  182 1   
   179  178  179 1   
   180  178  180 1   
   181  178  181 1   
   182  184  185 1   
   183  184  186 1   
   184  187  188 1   
   185  187  189 1   
   186  190  191 1   
   187  190  192 1   
@<TRIPOS>SUBSTRUCTURE
     1 MOL         1 TEMP              0 ****  ****    0 ROOT
