@<TRIPOS>MOLECULE
MOL
  192   187     1     0     0
SMALL
resp


@<TRIPOS>ATOM
      1 C1          8.2850   -2.0450    0.2410 c3        1 MOL     -0.453596
      2 C2          6.9380   -1.3720   -0.1430 c         1 MOL      0.809868
      3 O1          7.0690   -0.2670   -0.7000 o         1 MOL     -0.644635
      4 H1          8.4380   -2.9310   -0.3760 hc        1 MOL      0.115201
      5 H2          9.1020   -1.3430    0.0770 hc        1 MOL      0.115201
      6 H3          8.2600   -2.3350    1.2920 hc        1 MOL      0.115201
      7 N1          5.7090   -1.8430    0.0740 n         1 MOL     -0.670706
      8 C3          5.3110   -3.1280    0.6290 c3        1 MOL      0.379084
      9 C4          5.1730   -4.1300   -0.5160 c         1 MOL      0.313780
     10 O2          5.6780   -5.2250   -0.3870 o         1 MOL     -0.555922
     11 C5          3.9950   -3.0500    1.4400 c3        1 MOL      0.001326
     12 C6          4.0420   -2.2180    2.6880 c         1 MOL      0.732149
     13 O3          2.9570   -1.5770    2.9090 o         1 MOL     -0.735874
     14 O4          4.9940   -2.1560    3.4780 o         1 MOL     -0.735874
     15 H4          4.9590   -1.2010   -0.1490 hn        1 MOL      0.313203
     16 H5          6.1020   -3.5520    1.2600 h1        1 MOL     -0.027766
     17 H6          3.7880   -4.0820    1.7500 hc        1 MOL     -0.034926
     18 H7          3.1820   -2.7230    0.7930 hc        1 MOL     -0.034926
     19 N2          4.7080   -3.7160   -1.6850 n         1 MOL     -0.084461
     20 C7          4.5610   -4.6380   -2.8240 c3        1 MOL     -0.071561
     21 C8          3.1770   -5.4130   -2.8790 c         1 MOL      0.311535
     22 O5          2.9810   -6.2520   -3.7840 o         1 MOL     -0.545268
     23 C9          5.1840   -4.1750   -4.1720 c3        1 MOL      0.110152
     24 C10         4.3670   -2.9570   -4.8210 c3        1 MOL      0.014358
     25 C11         6.5830   -3.7000   -3.9190 c3        1 MOL     -0.115768
     26 C12         2.8780   -3.1270   -5.2020 c3        1 MOL     -0.134029
     27 H8          4.4060   -2.7550   -1.7550 hn        1 MOL      0.199969
     28 H9          5.2580   -5.4480   -2.6080 h1        1 MOL      0.105548
     29 H10         5.2930   -5.0320   -4.8270 hc        1 MOL      0.010053
     30 H11         4.9770   -2.5930   -5.6450 hc        1 MOL     -0.009167
     31 H12         4.4000   -2.2180   -4.0200 hc        1 MOL     -0.009167
     32 H13         7.1150   -4.4240   -3.2970 hc        1 MOL      0.004596
     33 H14         7.1090   -3.4790   -4.8440 hc        1 MOL      0.004596
     34 H15         6.5480   -2.8130   -3.2790 hc        1 MOL      0.004596
     35 H16         2.6360   -2.2160   -5.7550 hc        1 MOL      0.031229
     36 H17         2.6910   -3.9970   -5.8330 hc        1 MOL      0.031229
     37 H18         2.2930   -3.1640   -4.2920 hc        1 MOL      0.031229
     38 N3          2.2900   -5.0570   -1.9730 n         1 MOL      0.012217
     39 C13         0.9780   -5.6500   -1.6860 c3        1 MOL     -0.004696
     40 C14         0.4800   -5.2530   -0.2500 c         1 MOL      0.318241
     41 O6          1.1380   -4.4800    0.4170 o         1 MOL     -0.374612
     42 C15        -0.0200   -5.0320   -2.7030 c3        1 MOL     -0.210773
     43 C16        -1.4180   -5.7180   -2.6650 c         1 MOL      0.701247
     44 O7         -2.3480   -5.1520   -3.2940 o         1 MOL     -0.716374
     45 O8         -1.4690   -6.8260   -2.1060 o         1 MOL     -0.716374
     46 H19         2.5950   -4.3600   -1.3060 hn        1 MOL      0.015824
     47 H20         1.0620   -6.7350   -1.7090 h1        1 MOL      0.067036
     48 H21         0.2850   -5.0450   -3.7570 hc        1 MOL      0.070118
     49 H22        -0.2200   -3.9910   -2.4570 hc        1 MOL      0.070118
     50 N4         -0.5850   -5.8260    0.2770 n         1 MOL     -0.372370
     51 C17        -1.2660   -5.3050    1.5180 c3        1 MOL      0.053826
     52 C18        -2.1870   -4.0790    1.4420 c         1 MOL      0.548009
     53 O9         -2.6050   -3.7350    0.3490 o         1 MOL     -0.496779
     54 H23        -1.1200   -6.5420   -0.1880 hn        1 MOL      0.307054
     55 H24        -0.4520   -4.9570    2.1560 h1        1 MOL      0.026794
     56 H25        -1.7190   -6.1760    1.9790 h1        1 MOL      0.026794
     57 N5         -2.4690   -3.4270    2.5810 n         1 MOL     -0.598846
     58 C19        -3.2880   -2.2100    2.7760 c3        1 MOL      0.487674
     59 C20        -4.3630   -2.4550    3.9040 c         1 MOL      0.383818
     60 O10        -4.0000   -3.0320    4.9350 o         1 MOL     -0.516113
     61 C21        -2.3120   -1.0160    2.9220 c3        1 MOL     -0.076847
     62 C22        -1.0620   -1.2110    3.7850 c         1 MOL      0.585941
     63 O11         0.0200   -0.6950    3.4100 o         1 MOL     -0.674067
     64 O12        -1.1350   -1.9220    4.7820 o         1 MOL     -0.674067
     65 H26        -2.1060   -3.8660    3.4140 hn        1 MOL      0.308076
     66 H27        -3.8350   -2.0620    1.8420 h1        1 MOL     -0.027000
     67 H28        -2.8420   -0.0800    3.1170 hc        1 MOL     -0.026383
     68 H29        -1.9850   -0.9330    1.8850 hc        1 MOL     -0.026383
     69 N6         -5.6140   -2.0780    3.7620 n         1 MOL     -0.498109
     70 C23        -6.3210   -1.6330    2.6200 c3        1 MOL      0.030156
     71 C24        -6.8540   -2.7820    1.7240 c         1 MOL      0.545810
     72 O13        -6.6760   -3.9190    2.1330 o         1 MOL     -0.508372
     73 H30        -6.1720   -1.9640    4.5920 hn        1 MOL      0.306218
     74 H31        -5.6960   -0.9360    2.0690 h1        1 MOL      0.089575
     75 H32        -7.1580   -1.0020    2.9090 h1        1 MOL      0.089575
     76 N7         -7.4940   -2.5350    0.5500 n         1 MOL     -0.658534
     77 C25        -7.9490   -1.3080   -0.1260 c3        1 MOL      0.319766
     78 C26        -6.7710   -0.2280   -0.0920 c         1 MOL      0.432969
     79 O14        -6.7430    0.5420    0.8730 o         1 MOL     -0.489009
     80 C27        -9.2890   -0.7480    0.4220 c3        1 MOL     -0.403490
     81 C28        -9.7440    0.4830   -0.3720 c3        1 MOL     -0.119725
     82 C29       -11.1330    0.9280    0.2540 c         1 MOL      0.722586
     83 N8        -12.0770    0.0910    0.3000 n         1 MOL     -0.798668
     84 O15       -11.2970    2.0730    0.6510 o         1 MOL     -0.585012
     85 H33        -7.6670   -3.3810    0.0100 hn        1 MOL      0.330902
     86 H34        -8.0680   -1.6240   -1.1600 h1        1 MOL      0.059679
     87 H35        -9.4060   -0.4170    1.4580 hc        1 MOL      0.107934
     88 H36        -9.9520   -1.5590    0.1400 hc        1 MOL      0.107934
     89 H37        -9.8670    0.1450   -1.4050 hc        1 MOL      0.036662
     90 H38        -9.0060    1.2740   -0.2900 hc        1 MOL      0.036662
     91 H39       -11.9180   -0.8770    0.0600 hn        1 MOL      0.360780
     92 H40       -12.8740    0.3250    0.8710 hn        1 MOL      0.360780
     93 N9         -5.9120   -0.2140   -1.1150 n         1 MOL     -0.382607
     94 C30        -4.7030    0.6580   -1.3440 c3        1 MOL     -0.003623
     95 C31        -3.5460   -0.1210   -1.9910 c         1 MOL      0.526596
     96 O16        -3.8300   -1.1400   -2.6130 o         1 MOL     -0.488383
     97 C32        -5.0070    1.9360   -2.1390 c3        1 MOL      0.074343
     98 C33        -5.8930    2.9310   -1.3610 c3        1 MOL     -0.197965
     99 C34        -5.6740    1.6200   -3.5020 c3        1 MOL     -0.197965
    100 H41        -6.1990   -0.8450   -1.8610 hn        1 MOL      0.224741
    101 H42        -4.4070    0.8200   -0.3060 h1        1 MOL      0.106535
    102 H43        -4.0090    2.3330   -2.2940 hc        1 MOL      0.081748
    103 H44        -5.5170    3.2660   -0.3910 hc        1 MOL      0.045703
    104 H45        -6.0980    3.8170   -1.9820 hc        1 MOL      0.045703
    105 H46        -6.8280    2.3820   -1.2770 hc        1 MOL      0.045703
    106 H47        -5.9220    2.5120   -4.0860 hc        1 MOL      0.045703
    107 H48        -4.9410    1.0130   -4.0290 hc        1 MOL      0.045703
    108 H49        -6.6400    1.1200   -3.3730 hc        1 MOL      0.045703
    109 N10        -2.3490    0.2020   -1.6570 n         1 MOL     -0.309531
    110 C35        -1.1020   -0.2940   -2.3180 c3        1 MOL     -0.128287
    111 C36        -0.0720    0.7260   -2.6780 c         1 MOL      0.527273
    112 O17         1.0230    0.3240   -3.1410 o         1 MOL     -0.534109
    113 C37        -0.4510   -1.4280   -1.4230 c3        1 MOL     -0.178498
    114 C38         0.1280   -0.9000   -0.1050 c         1 MOL      0.501582
    115 N11         0.7810   -1.7310    0.7030 n         1 MOL     -0.447069
    116 O18         0.2120    0.2650    0.2000 o         1 MOL     -0.523375
    117 H50        -2.2690    0.8520   -0.8870 hn        1 MOL      0.221700
    118 H51        -1.3070   -0.6650   -3.3320 h1        1 MOL      0.140338
    119 H52         0.4110   -1.7790   -2.0000 hc        1 MOL      0.086998
    120 H53        -1.0650   -2.3120   -1.2660 hc        1 MOL      0.086998
    121 H54         0.7440   -2.7220    0.5140 hn        1 MOL      0.263205
    122 H55         1.1660   -1.4250    1.5840 hn        1 MOL      0.263205
    123 N12        -0.2990    1.9870   -2.4250 n         1 MOL     -0.408539
    124 C39         0.5640    3.1180   -2.5810 c3        1 MOL      0.204030
    125 C40         0.8320    3.8480   -1.3220 c         1 MOL      0.704652
    126 O19        -0.0670    3.9710   -0.4830 o         1 MOL     -0.498919
    127 C41         0.1640    3.9220   -3.8360 c3        1 MOL      0.051350
    128 C42        -1.2120    4.5040   -3.7970 ca        1 MOL      0.084100
    129 C43        -1.4400    5.5950   -2.9190 ca        1 MOL     -0.270216
    130 C44        -2.2850    3.9230   -4.4840 ca        1 MOL     -0.270216
    131 C45        -2.7120    6.0330   -2.6770 ca        1 MOL     -0.068127
    132 C46        -3.5340    4.4580   -4.3120 ca        1 MOL     -0.068127
    133 C47        -3.7730    5.5020   -3.4100 ca        1 MOL      0.141205
    134 O20        -5.0290    6.0770   -3.3200 oh        1 MOL     -0.463720
    135 H56        -1.1680    2.2040   -1.9450 hn        1 MOL      0.179083
    136 H57         1.5190    2.7340   -2.9590 h1        1 MOL     -0.006293
    137 H58         0.1570    3.3730   -4.7800 hc        1 MOL     -0.023534
    138 H59         0.8870    4.7280   -3.9080 hc        1 MOL     -0.023534
    139 H60        -0.5900    5.9510   -2.3590 ha        1 MOL      0.129920
    140 H61        -2.0730    3.1170   -5.1760 ha        1 MOL      0.129920
    141 H62        -2.9840    6.8270   -2.0060 ha        1 MOL      0.119762
    142 H63        -4.3590    4.1810   -4.9540 ha        1 MOL      0.119762
    143 H64        -5.6710    5.4810   -3.7090 ho        1 MOL      0.321126
    144 N13         2.0230    4.4350   -1.1270 n         1 MOL     -0.669989
    145 C48         2.4020    5.1860    0.0910 c3        1 MOL      0.022164
    146 C49         3.9160    5.2050    0.1480 c         1 MOL      0.664294
    147 O21         4.6040    6.1490   -0.1840 o         1 MOL     -0.510496
    148 C50         1.8120    6.6010   -0.1990 c3        1 MOL     -0.138283
    149 C51         1.7170    7.6090    0.9470 c3        1 MOL      0.160413
    150 C52         0.8160    7.2320    2.1450 c         1 MOL      0.619788
    151 O22         1.0030    6.1650    2.7560 o         1 MOL     -0.708745
    152 O23        -0.1600    7.9610    2.3710 o         1 MOL     -0.708745
    153 H65         2.6360    4.5670   -1.9160 hn        1 MOL      0.304966
    154 H66         1.8990    4.7700    0.9580 h1        1 MOL      0.075721
    155 H67         0.8380    6.5700   -0.6920 hc        1 MOL      0.047270
    156 H68         2.5570    7.0980   -0.8220 hc        1 MOL      0.047270
    157 H69         1.3710    8.5850    0.5850 hc        1 MOL     -0.097833
    158 H70         2.7090    7.8230    1.3320 hc        1 MOL     -0.097833
    159 N14         4.4580    4.0480    0.6030 n         1 MOL     -0.646038
    160 C53         5.9110    3.7090    0.3290 c3        1 MOL      0.104231
    161 C54         6.0720    3.6040   -1.1960 c         1 MOL      0.382634
    162 O24         7.0350    4.1710   -1.7070 o         1 MOL     -0.583093
    163 C55         6.3170    2.3210    0.9550 c3        1 MOL     -0.060052
    164 C56         6.2040    2.1540    2.5180 c3        1 MOL     -0.379988
    165 C57         4.8030    1.9440    3.1380 c         1 MOL      0.943649
    166 O25         4.6620    1.4800    4.2640 o         1 MOL     -0.835789
    167 O26         3.7980    1.8600    2.3350 o         1 MOL     -0.835789
    168 H71         3.9060    3.2160    0.7910 hn        1 MOL      0.385332
    169 H72         6.6320    4.4550    0.6620 h1        1 MOL      0.054432
    170 H73         7.3320    2.0780    0.6440 hc        1 MOL      0.078414
    171 H74         5.7540    1.5670    0.4140 hc        1 MOL      0.078414
    172 H75         6.5210    3.1280    2.8900 hc        1 MOL      0.092995
    173 H76         6.9010    1.3800    2.8530 hc        1 MOL      0.092995
    174 N15         5.1750    2.9800   -1.8550 n         1 MOL     -0.097134
    175 C58         5.1750    2.7270   -3.3360 c3        1 MOL     -0.170808
    176 H77         4.9460    1.6770   -3.5240 h1        1 MOL      0.082925
    177 H78         4.4210    3.3530   -3.8120 h1        1 MOL      0.082925
    178 H79         6.1570    2.9630   -3.7460 h1        1 MOL      0.082925
    179 H80         4.3650    2.7080   -1.3280 hn        1 MOL      0.157548
    180 Ca1         2.2090    0.6480    4.0710 Ca        1 MOL      1.765499
    181 O27         0.5670    2.0040    2.4410 oh        1 MOL     -0.839938
    182 O28         1.4150    0.7700    6.5690 oh        1 MOL     -0.839938
    183 H81         0.1270    1.7790    1.6260 ho        1 MOL      0.407898
    184 H82         1.0960    1.5890    6.9480 ho        1 MOL      0.407898
    185 H83         0.0160    2.6690    2.8490 ho        1 MOL      0.407898
    186 H84         1.8560    0.3330    7.2870 ho        1 MOL      0.407898
    187 O29         1.7230    3.3040    4.6900 oh        1 MOL     -0.839938
    188 H85         0.9090    3.7700    4.5170 ho        1 MOL      0.407898
    189 H86         2.4200    3.9270    4.4620 ho        1 MOL      0.407898
    190 O30         3.5340   -1.2170    5.7590 oh        1 MOL     -0.839938
    191 H87         4.1460   -1.6030    5.1350 ho        1 MOL      0.407898
    192 H88         3.7870   -1.5700    6.6040 ho        1 MOL      0.407898
@<TRIPOS>BOND
     1    1    2 1   
     2    1    4 1   
     3    1    5 1   
     4    1    6 1   
     5    2    3 2   
     6    2    7 1   
     7    7    8 1   
     8    7   15 1   
     9    8    9 1   
    10    8   11 1   
    11    8   16 1   
    12    9   10 2   
    13    9   19 1   
    14   11   12 1   
    15   11   17 1   
    16   11   18 1   
    17   12   13 1   
    18   12   14 1   
    19   19   20 1   
    20   19   27 1   
    21   20   21 1   
    22   20   23 1   
    23   20   28 1   
    24   21   22 2   
    25   21   38 1   
    26   23   24 1   
    27   23   25 1   
    28   23   29 1   
    29   24   26 1   
    30   24   30 1   
    31   24   31 1   
    32   25   32 1   
    33   25   33 1   
    34   25   34 1   
    35   26   35 1   
    36   26   36 1   
    37   26   37 1   
    38   38   39 1   
    39   38   46 1   
    40   39   40 1   
    41   39   42 1   
    42   39   47 1   
    43   40   41 2   
    44   40   50 1   
    45   42   43 1   
    46   42   48 1   
    47   42   49 1   
    48   43   44 1   
    49   43   45 1   
    50   50   51 1   
    51   50   54 1   
    52   51   52 1   
    53   51   55 1   
    54   51   56 1   
    55   52   53 2   
    56   52   57 1   
    57   57   58 1   
    58   57   65 1   
    59   58   59 1   
    60   58   61 1   
    61   58   66 1   
    62   59   60 2   
    63   59   69 1   
    64   61   62 1   
    65   61   67 1   
    66   61   68 1   
    67   62   63 1   
    68   62   64 1   
    69   69   70 1   
    70   69   73 1   
    71   70   71 1   
    72   70   74 1   
    73   70   75 1   
    74   71   72 2   
    75   71   76 1   
    76   76   77 1   
    77   76   85 1   
    78   77   78 1   
    79   77   80 1   
    80   77   86 1   
    81   78   79 2   
    82   78   93 1   
    83   80   81 1   
    84   80   87 1   
    85   80   88 1   
    86   81   82 1   
    87   81   89 1   
    88   81   90 1   
    89   82   83 1   
    90   82   84 2   
    91   83   91 1   
    92   83   92 1   
    93   93   94 1   
    94   93  100 1   
    95   94   95 1   
    96   94   97 1   
    97   94  101 1   
    98   95   96 2   
    99   95  109 1   
   100   97   98 1   
   101   97   99 1   
   102   97  102 1   
   103   98  103 1   
   104   98  104 1   
   105   98  105 1   
   106   99  106 1   
   107   99  107 1   
   108   99  108 1   
   109  109  110 1   
   110  109  117 1   
   111  110  111 1   
   112  110  113 1   
   113  110  118 1   
   114  111  112 2   
   115  111  123 1   
   116  113  114 1   
   117  113  119 1   
   118  113  120 1   
   119  114  115 1   
   120  114  116 2   
   121  115  121 1   
   122  115  122 1   
   123  123  124 1   
   124  123  135 1   
   125  124  125 1   
   126  124  127 1   
   127  124  136 1   
   128  125  126 2   
   129  125  144 1   
   130  127  128 1   
   131  127  137 1   
   132  127  138 1   
   133  128  129 ar  
   134  128  130 ar  
   135  129  131 ar  
   136  129  139 1   
   137  130  132 ar  
   138  130  140 1   
   139  131  133 ar  
   140  131  141 1   
   141  132  133 ar  
   142  132  142 1   
   143  133  134 1   
   144  134  143 1   
   145  144  145 1   
   146  144  153 1   
   147  145  146 1   
   148  145  148 1   
   149  145  154 1   
   150  146  147 2   
   151  146  159 1   
   152  148  149 1   
   153  148  155 1   
   154  148  156 1   
   155  149  150 1   
   156  149  157 1   
   157  149  158 1   
   158  150  151 1   
   159  150  152 1   
   160  159  160 1   
   161  159  168 1   
   162  160  161 1   
   163  160  163 1   
   164  160  169 1   
   165  161  162 2   
   166  161  174 1   
   167  163  164 1   
   168  163  170 1   
   169  163  171 1   
   170  164  165 1   
   171  164  172 1   
   172  164  173 1   
   173  165  166 1   
   174  165  167 1   
   175  174  175 1   
   176  174  179 1   
   177  175  176 1   
   178  175  177 1   
   179  175  178 1   
   180  181  183 1   
   181  181  185 1   
   182  182  184 1   
   183  182  186 1   
   184  187  188 1   
   185  187  189 1   
   186  190  191 1   
   187  190  192 1   
@<TRIPOS>SUBSTRUCTURE
     1 MOL         1 TEMP              0 ****  ****    0 ROOT
