@<TRIPOS>MOLECULE
MOL
  195   189     1     0     0
SMALL
resp


@<TRIPOS>ATOM
      1 C1          4.6880    0.8720    6.1660 c3        1 MOL     -0.328503
      2 C2          4.6600    0.8050    4.5760 c         1 MOL      0.729545
      3 O1          4.6530    1.8480    3.9640 o         1 MOL     -0.573877
      4 H1          3.9330    0.1970    6.5710 hc        1 MOL      0.080677
      5 H2          5.6720    0.5730    6.5260 hc        1 MOL      0.080677
      6 H3          4.4750    1.8900    6.4920 hc        1 MOL      0.080677
      7 N1          4.5690   -0.3970    3.9790 n         1 MOL     -0.674864
      8 C3          4.4020   -0.4550    2.5390 c3        1 MOL      0.016881
      9 C4          3.0460   -0.2480    1.8940 c         1 MOL      0.225439
     10 O2          2.8880   -0.1990    0.6970 o         1 MOL     -0.369774
     11 C5          5.1230   -1.7080    1.9640 c3        1 MOL      0.108919
     12 C6          5.1070   -3.0480    2.6640 c         1 MOL      0.627937
     13 O3          5.5820   -4.0920    2.1390 o         1 MOL     -0.700863
     14 O4          4.6650   -3.0430    3.8760 o         1 MOL     -0.700863
     15 H4          4.7010   -1.2620    4.4690 hn        1 MOL      0.356901
     16 H5          4.9460    0.4360    2.2240 h1        1 MOL      0.173389
     17 H6          6.1850   -1.5020    1.9140 hc        1 MOL      0.004248
     18 H7          4.7400   -1.8420    0.9440 hc        1 MOL      0.004248
     19 N2          2.0480   -0.0670    2.7180 n         1 MOL     -0.220845
     20 C7          0.5940   -0.2100    2.4280 c3        1 MOL      0.152123
     21 C8         -0.0160    1.1570    2.5930 c         1 MOL      0.609455
     22 O5          0.2770    1.8270    3.5760 o         1 MOL     -0.570914
     23 C9          0.0510   -1.2620    3.3510 c3        1 MOL      0.070657
     24 C10         0.4540   -2.6810    2.8410 c3        1 MOL     -0.004987
     25 C11        -0.0290   -3.8050    3.7240 c3        1 MOL     -0.129674
     26 C12         0.3030   -5.2110    3.1400 c3        1 MOL      0.136949
     27 N3         -0.6550   -6.2870    3.4970 n4        1 MOL     -0.473925
     28 H8          2.3270   -0.0490    3.6870 hn        1 MOL      0.211464
     29 H9          0.3280   -0.4630    1.4040 h1        1 MOL      0.122223
     30 H10        -1.0320   -1.1880    3.4260 hc        1 MOL     -0.016734
     31 H11         0.4610   -1.1550    4.3490 hc        1 MOL     -0.016734
     32 H12         1.5210   -2.7810    2.6670 hc        1 MOL      0.056397
     33 H13        -0.0420   -2.7840    1.8690 hc        1 MOL      0.056397
     34 H14        -1.1020   -3.6890    3.7150 hc        1 MOL      0.057208
     35 H15         0.4980   -3.7380    4.6760 hc        1 MOL      0.057208
     36 H16         1.3200   -5.4970    3.3930 hx        1 MOL      0.050762
     37 H17         0.2410   -5.0710    2.0530 hx        1 MOL      0.050762
     38 H18        -1.5570   -6.1190    3.0870 hn        1 MOL      0.341868
     39 H19        -0.3400   -7.2080    3.2440 hn        1 MOL      0.341868
     40 H20        -0.7210   -6.1900    4.4970 hn        1 MOL      0.341868
     41 N4         -0.9450    1.6350    1.7140 n         1 MOL     -0.572636
     42 C13        -1.3990    0.9340    0.5030 c3        1 MOL      0.002196
     43 C14        -1.9060   -0.5780    0.7460 c         1 MOL      0.025414
     44 O6         -1.4470   -1.4580    0.1500 o         1 MOL     -0.476668
     45 C15        -0.4570    1.1820   -0.6890 c3        1 MOL     -0.546450
     46 C16         0.1420    2.6020   -0.8080 c         1 MOL      1.114157
     47 O7         -0.5710    3.6350   -1.0260 o         1 MOL     -0.882883
     48 O8          1.3800    2.8850   -0.7080 o         1 MOL     -0.882883
     49 H21        -1.2790    2.5820    1.8020 hn        1 MOL      0.289495
     50 H22        -2.3130    1.4460    0.2020 h1        1 MOL      0.179510
     51 H23        -0.8760    0.8420   -1.6300 hc        1 MOL      0.127720
     52 H24         0.4530    0.6010   -0.5590 hc        1 MOL      0.127720
     53 N5         -2.8990   -0.7830    1.6530 n         1 MOL     -0.015584
     54 C17        -3.8600    0.1770    2.2120 c3        1 MOL     -0.125713
     55 C18        -4.6430   -0.4470    3.3440 c         1 MOL      0.463529
     56 O9         -4.2600   -1.3860    4.0160 o         1 MOL     -0.550501
     57 H25        -3.1330   -1.7330    1.8870 hn        1 MOL      0.208038
     58 H26        -4.4570    0.5640    1.3750 h1        1 MOL      0.099465
     59 H27        -3.4130    1.0300    2.7150 h1        1 MOL      0.099465
     60 N6         -5.8270    0.0930    3.5940 n         1 MOL     -0.330527
     61 C19        -6.5840    1.1870    2.9520 c3        1 MOL     -0.023632
     62 C20        -7.4390    0.6220    1.8420 c         1 MOL      0.643309
     63 O10        -7.6480   -0.5290    1.7290 o         1 MOL     -0.482599
     64 C21        -7.4090    1.8210    4.0670 c3        1 MOL     -0.296396
     65 C22        -8.4530    0.8780    4.6600 c         1 MOL      0.779993
     66 O11        -8.0880   -0.0970    5.3500 o         1 MOL     -0.680984
     67 O12        -9.6480    1.0800    4.5520 o         1 MOL     -0.680984
     68 H28        -6.2420   -0.2940    4.4320 hn        1 MOL      0.238228
     69 H29        -5.8360    1.8770    2.5470 h1        1 MOL      0.032174
     70 H30        -7.8270    2.7460    3.6670 hc        1 MOL      0.062321
     71 H31        -6.7290    2.0730    4.8840 hc        1 MOL      0.062321
     72 N7         -7.9110    1.5210    0.9730 n         1 MOL     -0.463592
     73 C23        -8.6180    1.1530   -0.2590 c3        1 MOL     -0.319631
     74 C24        -7.7070    0.9010   -1.4330 c         1 MOL      0.464923
     75 O13        -8.0470    0.1870   -2.3280 o         1 MOL     -0.518501
     76 H32        -7.7930    2.5120    1.1170 hn        1 MOL      0.292790
     77 H33        -9.2570    1.9730   -0.5940 h1        1 MOL      0.202884
     78 H34        -9.2470    0.2810   -0.0660 h1        1 MOL      0.202884
     79 N8         -6.4670    1.4640   -1.4630 n         1 MOL     -0.329151
     80 C25        -5.5360    1.2170   -2.6000 c3        1 MOL      0.042524
     81 C26        -4.5730    0.1100   -2.2000 c         1 MOL      0.581127
     82 O14        -3.5110    0.4290   -1.6850 o         1 MOL     -0.514764
     83 C27        -4.8020    2.5080   -3.0800 c3        1 MOL      0.481286
     84 C28        -5.7830    3.6160   -3.6040 c3        1 MOL     -0.427113
     85 O15        -3.9580    2.2460   -4.1800 oh        1 MOL     -0.643635
     86 H35        -6.1830    2.1100   -0.7510 hn        1 MOL      0.209361
     87 H36        -6.0560    0.8790   -3.5010 h1        1 MOL      0.069010
     88 H37        -4.2380    2.8760   -2.2290 h1        1 MOL     -0.049838
     89 H38        -3.2380    2.8740   -4.2390 ho        1 MOL      0.407789
     90 H39        -6.1250    4.1510   -2.7170 hc        1 MOL      0.101414
     91 H40        -5.0820    4.2490   -4.1480 hc        1 MOL      0.101414
     92 H41        -6.5710    3.2750   -4.2740 hc        1 MOL      0.101414
     93 N9         -5.0640   -1.1520   -2.3180 n         1 MOL     -0.648397
     94 C29        -4.3320   -2.2910   -1.7440 c3        1 MOL     -0.079535
     95 C30        -3.0420   -2.6880   -2.5810 c         1 MOL      0.226948
     96 O16        -2.6020   -3.8600   -2.6940 o         1 MOL     -0.492453
     97 C31        -5.2570   -3.4560   -1.3540 c3        1 MOL      0.228540
     98 C32        -5.8210   -4.0600   -2.6790 c3        1 MOL     -0.124474
     99 C33        -6.3860   -2.9190   -0.4000 c3        1 MOL     -0.104809
    100 C34        -6.8770   -5.1990   -2.6680 c3        1 MOL     -0.273065
    101 H42        -6.0040   -1.3400   -2.6400 hn        1 MOL      0.371630
    102 H43        -3.9030   -1.8770   -0.8350 h1        1 MOL      0.194403
    103 H44        -4.6340   -4.1480   -0.7830 hc        1 MOL     -0.016414
    104 H45        -4.9490   -4.5600   -3.1120 hc        1 MOL      0.088180
    105 H46        -6.2730   -3.2290   -3.2110 hc        1 MOL      0.088180
    106 H47        -6.8710   -3.7640    0.0790 hc        1 MOL      0.031602
    107 H48        -5.8650   -2.4220    0.4180 hc        1 MOL      0.031602
    108 H49        -7.0940   -2.2220   -0.8370 hc        1 MOL      0.031602
    109 H50        -7.4130   -5.3000   -3.6080 hc        1 MOL      0.072750
    110 H51        -6.2770   -6.0970   -2.4830 hc        1 MOL      0.072750
    111 H52        -7.6360   -5.0160   -1.9130 hc        1 MOL      0.072750
    112 N10        -2.3720   -1.7130   -3.2620 n         1 MOL     -0.013258
    113 C35        -1.1960   -1.9950   -4.1220 c3        1 MOL     -0.052339
    114 C36         0.0730   -2.4250   -3.4450 c         1 MOL      0.280122
    115 O17         1.0380   -2.9040   -4.1160 o         1 MOL     -0.545995
    116 C37        -0.9670   -0.8520   -5.1290 c3        1 MOL      0.117899
    117 C38        -0.7610    0.5400   -4.5140 c3        1 MOL     -0.101259
    118 O18        -2.0060   -0.9360   -6.0460 oh        1 MOL     -0.599389
    119 H53        -2.6090   -0.7340   -3.2550 hn        1 MOL      0.229479
    120 H54        -1.4710   -2.8660   -4.7260 h1        1 MOL      0.118865
    121 H55        -0.0440   -1.0470   -5.6620 h1        1 MOL      0.068966
    122 H56        -1.4550   -0.8010   -6.8220 ho        1 MOL      0.396576
    123 H57        -0.6990    1.3620   -5.2210 hc        1 MOL      0.041720
    124 H58        -1.6380    0.7060   -3.8920 hc        1 MOL      0.041720
    125 H59         0.0590    0.4870   -3.8070 hc        1 MOL      0.041720
    126 N11         0.2520   -2.2090   -2.1640 n         1 MOL      0.012980
    127 C39         1.5430   -2.2760   -1.4560 c3        1 MOL     -0.014244
    128 C40         2.6560   -1.4850   -2.0680 c         1 MOL      0.404439
    129 O19         2.4510   -0.6950   -3.0140 o         1 MOL     -0.449225
    130 C41         2.0270   -3.7350   -1.1810 c3        1 MOL      0.290989
    131 C42         0.8740   -4.6550   -0.7610 c3        1 MOL     -0.158301
    132 O20         2.8050   -3.6920   -0.0180 oh        1 MOL     -0.412550
    133 H60        -0.5710   -1.9360   -1.6540 hn        1 MOL      0.176979
    134 H61         1.2680   -1.9220   -0.4610 h1        1 MOL     -0.002742
    135 H62         2.6200   -4.1660   -1.9780 h1        1 MOL      0.004508
    136 H63         2.8870   -4.5580    0.4010 ho        1 MOL      0.269807
    137 H64         1.2170   -5.6840   -0.8420 hc        1 MOL      0.027163
    138 H65         0.5240   -4.4580    0.2510 hc        1 MOL      0.027163
    139 H66         0.0730   -4.6680   -1.5060 hc        1 MOL      0.027163
    140 N12         3.9400   -1.7100   -1.7020 n         1 MOL     -0.062067
    141 C43         5.2160   -1.3520   -2.4450 c3        1 MOL     -0.129952
    142 C44         5.5270    0.2020   -2.4280 c         1 MOL      0.486319
    143 O21         6.2500    0.7520   -3.2660 o         1 MOL     -0.556259
    144 C45         6.4010   -2.1340   -1.8930 c3        1 MOL      0.028653
    145 C46         6.1410   -3.6640   -1.7280 c3        1 MOL      0.037673
    146 C47         7.3380   -4.3130   -1.0740 c3        1 MOL     -0.231894
    147 C48         7.1930   -5.8370   -1.1570 c3        1 MOL      0.140315
    148 N13         6.0130   -6.2850   -0.3910 n4        1 MOL     -0.388257
    149 H67         3.9830   -2.2910   -0.8710 hn        1 MOL     -0.123379
    150 H68         5.0940   -1.5450   -3.5070 h1        1 MOL      0.114103
    151 H69         6.6230   -1.8650   -0.8680 hc        1 MOL      0.040069
    152 H70         7.2940   -1.9400   -2.4920 hc        1 MOL      0.040069
    153 H71         5.9890   -4.0350   -2.7440 hc        1 MOL      0.001160
    154 H72         5.2160   -3.9010   -1.2200 hc        1 MOL      0.001160
    155 H73         7.4950   -4.0550   -0.0330 hc        1 MOL      0.099071
    156 H74         8.2150   -4.0600   -1.6770 hc        1 MOL      0.099071
    157 H75         8.0880   -6.4210   -1.0130 hx        1 MOL      0.051654
    158 H76         7.0500   -6.0920   -2.2120 hx        1 MOL      0.051654
    159 H77         5.1620   -5.9570   -0.8130 hn        1 MOL      0.323835
    160 H78         6.0270   -7.2850   -0.5110 hn        1 MOL      0.323835
    161 H79         6.1200   -6.0470    0.5910 hn        1 MOL      0.323835
    162 N14         5.0520    0.8410   -1.3630 n         1 MOL     -0.237784
    163 C49         5.7450    2.0520   -0.8550 c3        1 MOL     -0.015127
    164 C50         7.0010    1.6890   -0.1470 c         1 MOL      0.503891
    165 O22         6.9790    0.8190    0.7880 o         1 MOL     -0.518835
    166 C51         4.7310    2.8160   -0.0830 c3        1 MOL     -0.000966
    167 C52         5.2090    4.2640    0.2270 c3        1 MOL     -0.501094
    168 C53         4.0170    5.3040    0.1020 c         1 MOL      0.826361
    169 O23         3.2640    5.5430    1.0710 o         1 MOL     -0.733395
    170 O24         3.7480    5.8480   -0.9700 o         1 MOL     -0.733395
    171 H80         4.4300    0.3810   -0.7080 hn        1 MOL      0.084502
    172 H81         5.9930    2.6890   -1.7000 h1        1 MOL      0.050128
    173 H82         4.6270    2.2140    0.8220 hc        1 MOL      0.123996
    174 H83         3.7900    2.8870   -0.6330 hc        1 MOL      0.123996
    175 H84         5.9410    4.5170   -0.5340 hc        1 MOL      0.114996
    176 H85         5.7150    4.1710    1.1810 hc        1 MOL      0.114996
    177 N15         8.1160    2.4030   -0.4300 n         1 MOL     -0.315602
    178 C54         9.4580    2.2860    0.2490 c3        1 MOL     -0.226432
    179 H86        10.1570    2.9890   -0.2040 h1        1 MOL      0.113108
    180 H87         9.3500    2.5130    1.3090 h1        1 MOL      0.113108
    181 H88         9.8370    1.2700    0.1320 h1        1 MOL      0.113108
    182 H89         8.1110    3.1070   -1.1610 hn        1 MOL      0.266006
    183 Ca1         1.0720    5.6360   -0.5140 Ca        1 MOL      1.697762
    184 O25         1.6720    5.1920   -3.1370 oh        1 MOL     -0.799758
    185 H90         2.5110    5.6120   -3.3240 ho        1 MOL      0.400111
    186 H91         1.7670    4.3000   -3.4750 ho        1 MOL      0.400111
    187 O26         1.6020    7.8650    0.9310 oh        1 MOL     -0.799758
    188 H92         0.8060    8.3830    1.0310 ho        1 MOL      0.400111
    189 H93         1.8280    7.5840    1.8200 ho        1 MOL      0.400111
    190 O27         1.1120    7.8380   -2.1330 oh        1 MOL     -0.799758
    191 H94         0.6470    8.5840   -1.7530 ho        1 MOL      0.400111
    192 H95         1.8660    8.2290   -2.5690 ho        1 MOL      0.400111
    193 O28         0.5600    4.6920    1.8780 oh        1 MOL     -0.799758
    194 H96         1.3530    4.4270    2.3420 ho        1 MOL      0.400111
    195 H97        -0.1550    4.4180    2.4430 ho        1 MOL      0.400111
@<TRIPOS>BOND
     1    1    2 1   
     2    1    4 1   
     3    1    5 1   
     4    1    6 1   
     5    2    3 2   
     6    2    7 1   
     7    7    8 1   
     8    7   15 1   
     9    8    9 1   
    10    8   11 1   
    11    8   16 1   
    12    9   10 2   
    13    9   19 1   
    14   11   12 1   
    15   11   17 1   
    16   11   18 1   
    17   12   13 1   
    18   12   14 1   
    19   19   20 1   
    20   19   28 1   
    21   20   21 1   
    22   20   23 1   
    23   20   29 1   
    24   21   22 2   
    25   21   41 1   
    26   23   24 1   
    27   23   30 1   
    28   23   31 1   
    29   24   25 1   
    30   24   32 1   
    31   24   33 1   
    32   25   26 1   
    33   25   34 1   
    34   25   35 1   
    35   26   27 1   
    36   26   36 1   
    37   26   37 1   
    38   27   38 1   
    39   27   39 1   
    40   27   40 1   
    41   41   42 1   
    42   41   49 1   
    43   42   43 1   
    44   42   45 1   
    45   42   50 1   
    46   43   44 2   
    47   43   53 1   
    48   45   46 1   
    49   45   51 1   
    50   45   52 1   
    51   46   47 1   
    52   46   48 1   
    53   53   54 1   
    54   53   57 1   
    55   54   55 1   
    56   54   58 1   
    57   54   59 1   
    58   55   56 2   
    59   55   60 1   
    60   60   61 1   
    61   60   68 1   
    62   61   62 1   
    63   61   64 1   
    64   61   69 1   
    65   62   63 2   
    66   62   72 1   
    67   64   65 1   
    68   64   70 1   
    69   64   71 1   
    70   65   66 1   
    71   65   67 1   
    72   72   73 1   
    73   72   76 1   
    74   73   74 1   
    75   73   77 1   
    76   73   78 1   
    77   74   75 2   
    78   74   79 1   
    79   79   80 1   
    80   79   86 1   
    81   80   81 1   
    82   80   83 1   
    83   80   87 1   
    84   81   82 2   
    85   81   93 1   
    86   83   84 1   
    87   83   85 1   
    88   83   88 1   
    89   84   90 1   
    90   84   91 1   
    91   84   92 1   
    92   85   89 1   
    93   93   94 1   
    94   93  101 1   
    95   94   95 1   
    96   94   97 1   
    97   94  102 1   
    98   95   96 2   
    99   95  112 1   
   100   97   98 1   
   101   97   99 1   
   102   97  103 1   
   103   98  100 1   
   104   98  104 1   
   105   98  105 1   
   106   99  106 1   
   107   99  107 1   
   108   99  108 1   
   109  100  109 1   
   110  100  110 1   
   111  100  111 1   
   112  112  113 1   
   113  112  119 1   
   114  113  114 1   
   115  113  116 1   
   116  113  120 1   
   117  114  115 2   
   118  114  126 1   
   119  116  117 1   
   120  116  118 1   
   121  116  121 1   
   122  117  123 1   
   123  117  124 1   
   124  117  125 1   
   125  118  122 1   
   126  126  127 1   
   127  126  133 1   
   128  127  128 1   
   129  127  130 1   
   130  127  134 1   
   131  128  129 2   
   132  128  140 1   
   133  130  131 1   
   134  130  132 1   
   135  130  135 1   
   136  131  137 1   
   137  131  138 1   
   138  131  139 1   
   139  132  136 1   
   140  140  141 1   
   141  140  149 1   
   142  141  142 1   
   143  141  144 1   
   144  141  150 1   
   145  142  143 2   
   146  142  162 1   
   147  144  145 1   
   148  144  151 1   
   149  144  152 1   
   150  145  146 1   
   151  145  153 1   
   152  145  154 1   
   153  146  147 1   
   154  146  155 1   
   155  146  156 1   
   156  147  148 1   
   157  147  157 1   
   158  147  158 1   
   159  148  159 1   
   160  148  160 1   
   161  148  161 1   
   162  162  163 1   
   163  162  171 1   
   164  163  164 1   
   165  163  166 1   
   166  163  172 1   
   167  164  165 2   
   168  164  177 1   
   169  166  167 1   
   170  166  173 1   
   171  166  174 1   
   172  167  168 1   
   173  167  175 1   
   174  167  176 1   
   175  168  169 1   
   176  168  170 1   
   177  177  178 1   
   178  177  182 1   
   179  178  179 1   
   180  178  180 1   
   181  178  181 1   
   182  184  185 1   
   183  184  186 1   
   184  187  188 1   
   185  187  189 1   
   186  190  191 1   
   187  190  192 1   
   188  193  194 1   
   189  193  195 1   
@<TRIPOS>SUBSTRUCTURE
     1 MOL         1 TEMP              0 ****  ****    0 ROOT
