@<TRIPOS>MOLECULE
MOL
  192   187     1     0     0
SMALL
resp


@<TRIPOS>ATOM
      1 C1          9.3280   -0.2970    2.5800 c3        1 MOL     -0.700077
      2 C2          8.2420   -0.5730    1.4760 c         1 MOL      0.810723
      3 O1          7.1060   -0.7560    1.8380 o         1 MOL     -0.646251
      4 H1         10.2170    0.1280    2.1160 hc        1 MOL      0.172139
      5 H2          8.9310    0.4040    3.3140 hc        1 MOL      0.172139
      6 H3          9.5890   -1.2330    3.0750 hc        1 MOL      0.172139
      7 N1          8.6850   -0.6650    0.2250 n         1 MOL     -0.617156
      8 C3          7.9090   -0.9380   -0.9420 c3        1 MOL      0.251369
      9 C4          7.3310   -2.3220   -0.9360 c         1 MOL      0.371435
     10 O2          7.8740   -3.2340   -1.5330 o         1 MOL     -0.533767
     11 C5          8.6930   -0.6330   -2.1750 c3        1 MOL     -0.261619
     12 C6          9.0560    0.8360   -2.3860 c         1 MOL      0.714892
     13 O3         10.1130    1.1360   -3.0020 o         1 MOL     -0.661110
     14 O4          8.2770    1.6880   -1.8800 o         1 MOL     -0.661110
     15 H4          9.6730   -0.6750    0.0350 hn        1 MOL      0.341393
     16 H5          7.1220   -0.1810   -0.9370 h1        1 MOL      0.020560
     17 H6          8.0920   -0.9380   -3.0360 hc        1 MOL      0.059727
     18 H7          9.5510   -1.3070   -2.0930 hc        1 MOL      0.059727
     19 N2          6.1990   -2.6310   -0.2380 n         1 MOL     -0.109281
     20 C7          5.6070   -4.0150   -0.2270 c3        1 MOL      0.065120
     21 C8          4.1380   -3.9940   -0.7060 c         1 MOL      0.498905
     22 O5          3.7810   -4.7740   -1.5410 o         1 MOL     -0.524665
     23 C9          5.7350   -4.5830    1.1870 c3        1 MOL     -0.112488
     24 C10         7.2150   -4.8440    1.5020 c3        1 MOL      0.162917
     25 C11         7.3210   -5.5730    2.8740 c3        1 MOL     -0.006079
     26 C12         8.8200   -5.4230    3.2930 c3        1 MOL      0.045949
     27 N3          8.8390   -5.4470    4.7460 n4        1 MOL     -0.306538
     28 H8          5.8120   -1.9060    0.3500 hn        1 MOL      0.131646
     29 H9          6.0400   -4.5800   -1.0460 h1        1 MOL      0.094905
     30 H10         5.2570   -5.5640    1.1310 hc        1 MOL      0.012333
     31 H11         5.1760   -3.8950    1.8090 hc        1 MOL      0.012333
     32 H12         7.6720   -3.8570    1.5810 hc        1 MOL     -0.029950
     33 H13         7.6610   -5.3270    0.6430 hc        1 MOL     -0.029950
     34 H14         6.9210   -6.5860    2.7720 hc        1 MOL      0.021864
     35 H15         6.6930   -5.0920    3.6160 hc        1 MOL      0.021864
     36 H16         9.3530   -4.5940    2.8260 hx        1 MOL      0.065779
     37 H17         9.2520   -6.3410    2.8860 hx        1 MOL      0.065779
     38 H18         9.8030   -5.3810    5.0350 hn        1 MOL      0.272618
     39 H19         8.3610   -4.6110    5.0310 hn        1 MOL      0.272618
     40 H20         8.4190   -6.2640    5.1710 hn        1 MOL      0.272618
     41 N4          3.1870   -3.1100   -0.2780 n         1 MOL     -0.465707
     42 C13         3.4870   -1.9350    0.5850 c3        1 MOL     -0.009181
     43 C14         3.8040   -0.6510   -0.2080 c         1 MOL      0.289840
     44 O6          3.9630   -0.7170   -1.4720 o         1 MOL     -0.455050
     45 C15         2.3090   -1.7100    1.6510 c3        1 MOL     -0.070106
     46 C16         0.9870   -1.7280    0.8290 c         1 MOL      0.424206
     47 O7          0.8040   -1.0930   -0.2650 o         1 MOL     -0.574614
     48 O8          0.1300   -2.5530    1.2820 o         1 MOL     -0.574614
     49 H21         2.2660   -3.1670   -0.6750 hn        1 MOL      0.377073
     50 H22         4.3430   -2.0440    1.2630 h1        1 MOL      0.114106
     51 H23         2.5020   -0.7480    2.1170 hc        1 MOL      0.038455
     52 H24         2.3020   -2.5040    2.3960 hc        1 MOL      0.038455
     53 N5          3.9820    0.4970    0.4810 n         1 MOL     -0.281344
     54 C17         4.2430    1.7530   -0.1920 c3        1 MOL      0.041889
     55 C18         2.9980    2.4790   -0.6290 c         1 MOL      0.460761
     56 O9          1.8940    1.9680   -0.6100 o         1 MOL     -0.544450
     57 H25         4.0080    0.4600    1.4970 hn        1 MOL      0.286669
     58 H26         4.9700    1.6860   -1.0000 h1        1 MOL      0.062757
     59 H27         4.6500    2.3780    0.6090 h1        1 MOL      0.062757
     60 N6          3.2260    3.6580   -1.1120 n         1 MOL     -0.354746
     61 C19         2.3250    4.5800   -1.8010 c3        1 MOL      0.420777
     62 C20         2.7800    6.0420   -1.6470 c         1 MOL      0.427253
     63 O10         3.9650    6.2570   -1.4490 o         1 MOL     -0.519691
     64 C21         2.1410    4.2240   -3.3090 c3        1 MOL     -0.633592
     65 C22         1.4930    2.8860   -3.5770 c         1 MOL      0.794380
     66 O11         0.3260    2.7310   -3.1230 o         1 MOL     -0.671537
     67 O12         2.0790    2.0110   -4.2680 o         1 MOL     -0.671537
     68 H28         4.1970    3.9540   -1.0930 hn        1 MOL      0.235086
     69 H29         1.3150    4.5270   -1.3730 h1        1 MOL      0.017297
     70 H30         3.1370    4.1080   -3.7380 hc        1 MOL      0.155193
     71 H31         1.7000    5.0280   -3.8990 hc        1 MOL      0.155193
     72 N7          1.8920    7.0570   -1.7420 n         1 MOL     -0.426576
     73 C23         0.4660    6.9940   -2.0280 c3        1 MOL     -0.014419
     74 C24        -0.2970    6.4590   -0.8310 c         1 MOL      0.584887
     75 O13         0.0030    6.7450    0.3410 o         1 MOL     -0.504926
     76 H32         2.3340    7.9550   -1.6440 hn        1 MOL      0.308628
     77 H33         0.2840    6.3580   -2.8930 h1        1 MOL      0.061507
     78 H34         0.1760    8.0210   -2.2270 h1        1 MOL      0.061507
     79 N8         -1.3830    5.7180   -1.0790 n         1 MOL     -0.616667
     80 C25        -2.2830    5.2040   -0.0640 c3        1 MOL      0.042359
     81 C26        -1.5920    4.0650    0.6950 c         1 MOL      0.726286
     82 O14        -0.9520    3.2340    0.0390 o         1 MOL     -0.788549
     83 C27        -3.6460    4.7770   -0.6470 c3        1 MOL      0.543285
     84 C28        -4.5730    5.9890   -0.6470 c3        1 MOL     -0.301752
     85 O15        -4.2600    3.8350    0.1700 oh        1 MOL     -0.692279
     86 H35        -1.6640    5.6550   -2.0450 hn        1 MOL      0.311401
     87 H36        -2.4530    6.0020    0.6590 h1        1 MOL      0.055284
     88 H37        -3.5060    4.3190   -1.6220 h1        1 MOL     -0.051334
     89 H38        -4.8060    3.2650   -0.3700 ho        1 MOL      0.404711
     90 H39        -4.8740    6.1640    0.3830 hc        1 MOL      0.071163
     91 H40        -4.1050    6.8360   -1.1490 hc        1 MOL      0.071163
     92 H41        -5.4210    5.7920   -1.3000 hc        1 MOL      0.071163
     93 N9         -1.5070    3.9860    2.0350 n         1 MOL     -0.521988
     94 C29        -0.8420    2.9060    2.7530 c3        1 MOL      0.034945
     95 C30        -1.2480    1.4760    2.3610 c         1 MOL      0.204783
     96 O16        -0.6500    0.8510    1.4310 o         1 MOL     -0.476242
     97 C31         0.6930    3.0780    2.7030 c3        1 MOL      0.143504
     98 C32         1.1730    4.5290    2.9860 c3        1 MOL      0.171318
     99 C33         1.3330    1.9860    3.6190 c3        1 MOL     -0.509968
    100 C34         2.6260    4.8470    2.4110 c3        1 MOL     -0.386158
    101 H42        -1.9660    4.6990    2.5920 hn        1 MOL      0.295412
    102 H43        -1.1940    3.0060    3.7810 h1        1 MOL      0.060022
    103 H44         0.9930    2.9030    1.6740 hc        1 MOL      0.128646
    104 H45         1.2190    4.5900    4.0730 hc        1 MOL     -0.033066
    105 H46         0.5040    5.3160    2.6380 hc        1 MOL     -0.033066
    106 H47         0.8540    2.1540    4.5800 hc        1 MOL      0.128410
    107 H48         1.2410    0.9430    3.3150 hc        1 MOL      0.128410
    108 H49         2.3960    2.1710    3.8040 hc        1 MOL      0.128410
    109 H50         2.8110    5.8950    2.6190 hc        1 MOL      0.088288
    110 H51         3.3760    4.2540    2.9330 hc        1 MOL      0.088288
    111 H52         2.5840    4.7740    1.3180 hc        1 MOL      0.088288
    112 N10        -2.1600    0.9170    3.1320 n         1 MOL     -0.214383
    113 C35        -2.4850   -0.5810    3.0490 c3        1 MOL     -0.037211
    114 C36        -3.9850   -0.9010    3.0220 c         1 MOL      0.553715
    115 O17        -4.2160   -2.0650    2.9180 o         1 MOL     -0.545093
    116 C37        -1.8060   -1.4090    4.1330 c3        1 MOL      0.356015
    117 C38        -1.8350   -0.8900    5.5850 c3        1 MOL     -0.320628
    118 O18        -0.4330   -1.4760    3.9090 oh        1 MOL     -0.524376
    119 H53        -2.3450    1.4370    3.9770 hn        1 MOL      0.236700
    120 H54        -2.0240   -0.9080    2.1160 h1        1 MOL      0.106872
    121 H55        -2.2340   -2.4090    4.1740 h1        1 MOL      0.017836
    122 H56        -0.3950   -1.9830    3.0950 ho        1 MOL      0.293534
    123 H57        -1.4990   -1.6040    6.3400 hc        1 MOL      0.072807
    124 H58        -1.0820   -0.1280    5.8100 hc        1 MOL      0.072807
    125 H59        -2.8250   -0.4850    5.8290 hc        1 MOL      0.072807
    126 N11        -4.9160    0.0280    3.0920 n         1 MOL     -0.375107
    127 C39        -6.2560   -0.3330    3.0140 c3        1 MOL      0.217689
    128 C40        -6.6620   -0.6360    1.5700 c         1 MOL      0.415757
    129 O19        -7.1060    0.2240    0.8590 o         1 MOL     -0.470196
    130 C41        -7.0220    0.7880    3.6400 c3        1 MOL      0.394253
    131 C42        -8.3870    0.2870    4.0250 c3        1 MOL     -0.547416
    132 O20        -6.4960    1.1730    4.8640 oh        1 MOL     -0.639857
    133 H60        -4.6460    1.0060    3.0980 hn        1 MOL      0.215681
    134 H61        -6.3340   -1.2750    3.5650 h1        1 MOL      0.027257
    135 H62        -7.1060    1.6240    2.9430 h1        1 MOL     -0.009186
    136 H63        -7.2440    1.6090    5.2790 ho        1 MOL      0.404349
    137 H64        -8.9640    0.0370    3.1360 hc        1 MOL      0.132834
    138 H65        -8.3000   -0.5010    4.7770 hc        1 MOL      0.132834
    139 H66        -8.9820    1.0580    4.5140 hc        1 MOL      0.132834
    140 N12        -6.5470   -2.0110    1.2200 n         1 MOL     -0.777620
    141 C43        -6.4220   -2.6030   -0.1430 c3        1 MOL      0.454570
    142 C44        -5.2190   -1.9890   -0.9790 c         1 MOL      0.421547
    143 O21        -4.7140   -0.8840   -0.7990 o         1 MOL     -0.473984
    144 C45        -7.7040   -2.3830   -0.9490 c3        1 MOL     -0.369544
    145 C46        -9.0320   -2.7330   -0.1580 c3        1 MOL      0.062152
    146 C47       -10.2910   -2.6730   -1.0080 c3        1 MOL     -0.019419
    147 C48       -11.5500   -2.5560   -0.1760 c3        1 MOL      0.148900
    148 N13       -12.7370   -2.3970   -1.0560 n4        1 MOL     -0.212053
    149 H67        -6.1850   -2.6090    1.9410 hn        1 MOL      0.356701
    150 H68        -6.3500   -3.6830   -0.0870 h1        1 MOL      0.005110
    151 H69        -7.6870   -2.9930   -1.8550 hc        1 MOL      0.108047
    152 H70        -7.7980   -1.3400   -1.2560 hc        1 MOL      0.108047
    153 H71        -9.3000   -2.0250    0.6260 hc        1 MOL      0.034884
    154 H72        -8.8530   -3.6930    0.3340 hc        1 MOL      0.034884
    155 H73       -10.4400   -3.5990   -1.5670 hc        1 MOL      0.018814
    156 H74       -10.1990   -1.8060   -1.6670 hc        1 MOL      0.018814
    157 H75       -11.4350   -1.7300    0.5340 hx        1 MOL      0.031869
    158 H76       -11.6330   -3.4210    0.4870 hx        1 MOL      0.031869
    159 H77       -13.5620   -2.2070   -0.5120 hn        1 MOL      0.210622
    160 H78       -12.7570   -1.6650   -1.7610 hn        1 MOL      0.210622
    161 H79       -13.0070   -3.2320   -1.5720 hn        1 MOL      0.210622
    162 N14        -4.7980   -2.7520   -1.9270 n         1 MOL     -0.505216
    163 C49        -3.4910   -2.5690   -2.6780 c3        1 MOL      0.285085
    164 C50        -2.3180   -2.3090   -1.7000 c         1 MOL      0.286783
    165 O22        -1.7560   -1.1770   -1.7750 o         1 MOL     -0.538348
    166 C51        -3.2150   -3.7800   -3.5950 c3        1 MOL      0.152222
    167 C52        -4.0280   -3.6560   -4.8620 c3        1 MOL     -0.293645
    168 C53        -4.1230   -5.0050   -5.6700 c         1 MOL      0.661302
    169 O23        -3.2160   -5.3980   -6.4350 o         1 MOL     -0.613916
    170 O24        -5.0300   -5.8140   -5.3930 o         1 MOL     -0.613916
    171 H80        -5.1960   -3.6780   -1.8820 hn        1 MOL      0.273533
    172 H81        -3.5980   -1.7330   -3.3740 h1        1 MOL      0.048447
    173 H82        -3.5730   -4.7180   -3.1630 hc        1 MOL      0.015078
    174 H83        -2.1480   -3.8350   -3.7700 hc        1 MOL      0.015078
    175 H84        -3.6280   -2.8630   -5.4940 hc        1 MOL      0.032786
    176 H85        -5.0600   -3.3800   -4.6220 hc        1 MOL      0.032786
    177 N15        -1.9950   -3.1840   -0.6870 n         1 MOL     -0.289614
    178 C54        -2.5310   -4.5050   -0.3840 c3        1 MOL     -0.065003
    179 H86        -3.1880   -4.8250   -1.1920 h1        1 MOL      0.044314
    180 H87        -1.7110   -5.2150   -0.2810 h1        1 MOL      0.044314
    181 H88        -3.0950   -4.4640    0.5480 h1        1 MOL      0.044314
    182 H89        -1.2760   -2.8100   -0.0890 hn        1 MOL      0.341765
    183 Ca1        -0.4170    0.9770   -1.3670 Ca        1 MOL      1.764624
    184 O25        -3.0010    1.4570   -0.5810 oh        1 MOL     -0.838885
    185 H90        -3.7910    0.9240   -0.6740 ho        1 MOL      0.403465
    186 H91        -3.1610    1.9900    0.2020 ho        1 MOL      0.403465
    187 O26         1.3530   -0.3040   -2.8280 oh        1 MOL     -0.838885
    188 H92         2.1290   -0.6840   -2.4030 ho        1 MOL      0.403465
    189 H93         1.7060    0.2500   -3.5140 ho        1 MOL      0.403465
    190 O27        -2.0680    0.9540   -3.7310 oh        1 MOL     -0.838885
    191 H94        -2.0790    1.4530   -4.5460 ho        1 MOL      0.403465
    192 H95        -2.9410    1.0680   -3.3580 ho        1 MOL      0.403465
@<TRIPOS>BOND
     1    1    2 1   
     2    1    4 1   
     3    1    5 1   
     4    1    6 1   
     5    2    3 2   
     6    2    7 1   
     7    7    8 1   
     8    7   15 1   
     9    8    9 1   
    10    8   11 1   
    11    8   16 1   
    12    9   10 2   
    13    9   19 1   
    14   11   12 1   
    15   11   17 1   
    16   11   18 1   
    17   12   13 1   
    18   12   14 1   
    19   19   20 1   
    20   19   28 1   
    21   20   21 1   
    22   20   23 1   
    23   20   29 1   
    24   21   22 2   
    25   21   41 1   
    26   23   24 1   
    27   23   30 1   
    28   23   31 1   
    29   24   25 1   
    30   24   32 1   
    31   24   33 1   
    32   25   26 1   
    33   25   34 1   
    34   25   35 1   
    35   26   27 1   
    36   26   36 1   
    37   26   37 1   
    38   27   38 1   
    39   27   39 1   
    40   27   40 1   
    41   41   42 1   
    42   41   49 1   
    43   42   43 1   
    44   42   45 1   
    45   42   50 1   
    46   43   44 2   
    47   43   53 1   
    48   45   46 1   
    49   45   51 1   
    50   45   52 1   
    51   46   47 1   
    52   46   48 1   
    53   53   54 1   
    54   53   57 1   
    55   54   55 1   
    56   54   58 1   
    57   54   59 1   
    58   55   56 2   
    59   55   60 1   
    60   60   61 1   
    61   60   68 1   
    62   61   62 1   
    63   61   64 1   
    64   61   69 1   
    65   62   63 2   
    66   62   72 1   
    67   64   65 1   
    68   64   70 1   
    69   64   71 1   
    70   65   66 1   
    71   65   67 1   
    72   72   73 1   
    73   72   76 1   
    74   73   74 1   
    75   73   77 1   
    76   73   78 1   
    77   74   75 2   
    78   74   79 1   
    79   79   80 1   
    80   79   86 1   
    81   80   81 1   
    82   80   83 1   
    83   80   87 1   
    84   81   82 2   
    85   81   93 1   
    86   83   84 1   
    87   83   85 1   
    88   83   88 1   
    89   84   90 1   
    90   84   91 1   
    91   84   92 1   
    92   85   89 1   
    93   93   94 1   
    94   93  101 1   
    95   94   95 1   
    96   94   97 1   
    97   94  102 1   
    98   95   96 2   
    99   95  112 1   
   100   97   98 1   
   101   97   99 1   
   102   97  103 1   
   103   98  100 1   
   104   98  104 1   
   105   98  105 1   
   106   99  106 1   
   107   99  107 1   
   108   99  108 1   
   109  100  109 1   
   110  100  110 1   
   111  100  111 1   
   112  112  113 1   
   113  112  119 1   
   114  113  114 1   
   115  113  116 1   
   116  113  120 1   
   117  114  115 2   
   118  114  126 1   
   119  116  117 1   
   120  116  118 1   
   121  116  121 1   
   122  117  123 1   
   123  117  124 1   
   124  117  125 1   
   125  118  122 1   
   126  126  127 1   
   127  126  133 1   
   128  127  128 1   
   129  127  130 1   
   130  127  134 1   
   131  128  129 2   
   132  128  140 1   
   133  130  131 1   
   134  130  132 1   
   135  130  135 1   
   136  131  137 1   
   137  131  138 1   
   138  131  139 1   
   139  132  136 1   
   140  140  141 1   
   141  140  149 1   
   142  141  142 1   
   143  141  144 1   
   144  141  150 1   
   145  142  143 2   
   146  142  162 1   
   147  144  145 1   
   148  144  151 1   
   149  144  152 1   
   150  145  146 1   
   151  145  153 1   
   152  145  154 1   
   153  146  147 1   
   154  146  155 1   
   155  146  156 1   
   156  147  148 1   
   157  147  157 1   
   158  147  158 1   
   159  148  159 1   
   160  148  160 1   
   161  148  161 1   
   162  162  163 1   
   163  162  171 1   
   164  163  164 1   
   165  163  166 1   
   166  163  172 1   
   167  164  165 2   
   168  164  177 1   
   169  166  167 1   
   170  166  173 1   
   171  166  174 1   
   172  167  168 1   
   173  167  175 1   
   174  167  176 1   
   175  168  169 1   
   176  168  170 1   
   177  177  178 1   
   178  177  182 1   
   179  178  179 1   
   180  178  180 1   
   181  178  181 1   
   182  184  185 1   
   183  184  186 1   
   184  187  188 1   
   185  187  189 1   
   186  190  191 1   
   187  190  192 1   
@<TRIPOS>SUBSTRUCTURE
     1 MOL         1 TEMP              0 ****  ****    0 ROOT
