@<TRIPOS>MOLECULE
MOL
  179   176     1     0     0
SMALL
resp


@<TRIPOS>ATOM
      1 C1          0.7920   -4.5440    5.9020 c3        1 MOL     -0.424984
      2 C2          0.8390   -3.9170    4.4680 c         1 MOL      0.791494
      3 O1         -0.1120   -3.8950    3.7250 o         1 MOL     -0.591202
      4 H1          0.0750   -5.3650    5.9160 hc        1 MOL      0.125016
      5 H2          1.7800   -4.9200    6.1680 hc        1 MOL      0.125016
      6 H3          0.4860   -3.7840    6.6220 hc        1 MOL      0.125016
      7 N1          2.0550   -3.4860    4.0190 n         1 MOL     -0.616079
      8 C3          2.3080   -3.1240    2.6430 c3        1 MOL      0.021349
      9 C4          2.5090   -4.3930    1.8390 c         1 MOL      0.665411
     10 O2          2.9780   -5.4210    2.3900 o         1 MOL     -0.556609
     11 C5          3.5110   -2.1640    2.5790 c3        1 MOL     -0.394291
     12 C6          3.6160   -1.4000    1.2730 c         1 MOL      0.568436
     13 O3          4.3210   -0.3230    1.1020 o         1 MOL     -0.733049
     14 O4          3.0820   -1.8070    0.2570 o         1 MOL     -0.733049
     15 H4          2.9000   -3.5400    4.5700 hn        1 MOL      0.307385
     16 H5          1.4170   -2.5830    2.3430 h1        1 MOL      0.115735
     17 H6          4.3930   -2.8030    2.6880 hc        1 MOL      0.185188
     18 H7          3.4950   -1.4190    3.3840 hc        1 MOL      0.185188
     19 N2          2.1570   -4.3550    0.5100 n         1 MOL     -0.593902
     20 C7          2.3060   -5.4900   -0.4120 c3        1 MOL      0.102476
     21 C8          3.5190   -5.4010   -1.2510 c         1 MOL      0.355916
     22 O5          3.9130   -6.3530   -1.9620 o         1 MOL     -0.521594
     23 C9          1.0540   -5.6010   -1.3220 c3        1 MOL     -0.268374
     24 C10         0.7520   -4.3970   -2.2850 c3        1 MOL      0.278553
     25 C11        -0.5690   -4.5660   -3.0640 c3        1 MOL     -0.111692
     26 C12        -0.9740   -3.2930   -3.6990 c3        1 MOL      0.195988
     27 N3         -1.7960   -3.4990   -4.9180 n4        1 MOL     -0.069452
     28 H8          2.0580   -3.4370    0.1100 hn        1 MOL      0.499731
     29 H9          2.4360   -6.4440    0.1120 h1        1 MOL      0.134913
     30 H10         0.1670   -5.7650   -0.7190 hc        1 MOL      0.074522
     31 H11         1.2610   -6.5070   -1.8790 hc        1 MOL      0.074522
     32 H12         1.4850   -4.2560   -3.0800 hc        1 MOL     -0.036293
     33 H13         0.7660   -3.5050   -1.6620 hc        1 MOL     -0.036293
     34 H14        -1.3250   -4.9320   -2.3680 hc        1 MOL      0.038881
     35 H15        -0.3880   -5.2950   -3.8470 hc        1 MOL      0.038881
     36 H16        -0.0990   -2.6630   -3.8870 hx        1 MOL     -0.028008
     37 H17        -1.6460   -2.7650   -3.0230 hx        1 MOL     -0.028008
     38 H18        -1.3020   -4.1440   -5.5250 hn        1 MOL      0.192233
     39 H19        -2.7540   -3.8080   -4.8820 hn        1 MOL      0.192233
     40 H20        -1.8490   -2.6530   -5.4610 hn        1 MOL      0.192233
     41 N4          4.2940   -4.3060   -1.2220 n         1 MOL     -0.189967
     42 C13         5.5020   -4.0150   -2.0410 c3        1 MOL      0.014633
     43 C14         6.6000   -3.2310   -1.2540 c         1 MOL      0.347595
     44 O6          7.8320   -3.3200   -1.5500 o         1 MOL     -0.544423
     45 C15         5.1460   -3.2730   -3.3550 c3        1 MOL     -0.141152
     46 C16         4.1580   -2.1640   -3.0680 c         1 MOL      0.742361
     47 O7          3.0770   -2.1530   -3.7160 o         1 MOL     -0.745350
     48 O8          4.3640   -1.2430   -2.2190 o         1 MOL     -0.745350
     49 H21         4.0080   -3.5680   -0.6010 hn        1 MOL      0.109359
     50 H22         5.8530   -5.0250   -2.2480 h1        1 MOL      0.116111
     51 H23         4.7970   -4.0420   -4.0450 hc        1 MOL      0.070289
     52 H24         6.0830   -2.9470   -3.8160 hc        1 MOL      0.070289
     53 N5          6.2370   -2.3430   -0.3280 n         1 MOL      0.029501
     54 C17         7.0700   -1.8630    0.7260 c3        1 MOL     -0.290793
     55 C18         7.3630   -0.3510    0.7590 c         1 MOL      0.551760
     56 O9          7.9480   -0.0100    1.7730 o         1 MOL     -0.510744
     57 H25         5.2650   -2.0710   -0.3620 hn        1 MOL      0.016879
     58 H26         8.0490   -2.3240    0.7210 h1        1 MOL      0.141529
     59 H27         6.6160   -2.1870    1.6660 h1        1 MOL      0.141529
     60 N6          7.0330    0.4350   -0.3020 n         1 MOL     -0.167115
     61 C19         7.3380    1.8740   -0.2590 c3        1 MOL      0.173762
     62 C20         6.0820    2.7180   -0.6040 c         1 MOL      0.632796
     63 O10         4.9750    2.1140   -0.8680 o         1 MOL     -0.694736
     64 C21         8.4550    2.2420   -1.1820 c3        1 MOL     -0.275049
     65 C22         9.6540    1.3060   -0.9810 c         1 MOL      0.630224
     66 N7          9.7100    0.1130   -1.5770 n         1 MOL     -0.838455
     67 O11        10.4850    1.5670   -0.0670 o         1 MOL     -0.530247
     68 H28         6.5160    0.0750   -1.0960 hn        1 MOL      0.141329
     69 H29         7.6230    2.1400    0.7630 h1        1 MOL      0.024788
     70 H30         8.7570    3.2870   -1.0750 hc        1 MOL      0.046564
     71 H31         8.0960    2.1190   -2.2050 hc        1 MOL      0.046564
     72 H32         9.0700   -0.0770   -2.3400 hn        1 MOL      0.400367
     73 H33        10.3950   -0.5430   -1.2320 hn        1 MOL      0.400367
     74 N8          6.1570    4.0020   -0.6500 n         1 MOL     -0.487633
     75 C23         5.0480    4.8840   -0.9580 c3        1 MOL     -0.079741
     76 C24         4.0030    4.8010    0.1530 c         1 MOL      0.636413
     77 O12         4.2840    4.5550    1.3040 o         1 MOL     -0.508158
     78 H34         7.0600    4.4420   -0.5260 hn        1 MOL      0.364911
     79 H35         4.5230    4.5240   -1.8410 h1        1 MOL      0.086242
     80 H36         5.3920    5.9080   -1.1090 h1        1 MOL      0.086242
     81 N9          2.7420    4.9920   -0.1940 n         1 MOL     -0.605168
     82 C25         1.5860    4.7760    0.7530 c3        1 MOL      0.228666
     83 C26         1.4680    3.2680    1.1730 c         1 MOL      0.520318
     84 O13         2.2220    2.4990    0.5930 o         1 MOL     -0.439125
     85 C27         0.3050    5.2740    0.0130 c3        1 MOL     -0.105811
     86 C28         0.2330    6.7850   -0.3060 ca        1 MOL      0.097500
     87 C29         0.1330    7.3090   -1.5970 ca        1 MOL     -0.235310
     88 C30         0.1230    7.6520    0.8220 ca        1 MOL     -0.235310
     89 C31        -0.0390    8.6770   -1.7390 ca        1 MOL     -0.136799
     90 C32         0.1350    9.0730    0.7090 ca        1 MOL     -0.136799
     91 C33         0.0680    9.5500   -0.6270 ca        1 MOL      0.214386
     92 O14         0.0650   10.9080   -0.7840 oh        1 MOL     -0.432789
     93 H37         2.4860    5.2600   -1.1370 hn        1 MOL      0.275884
     94 H38         1.7860    5.4270    1.5920 h1        1 MOL      0.065353
     95 H39        -0.5580    5.1280    0.6610 hc        1 MOL      0.041269
     96 H40         0.1520    4.6300   -0.8540 hc        1 MOL      0.041269
     97 H41        -0.0730    6.5950   -2.3910 ha        1 MOL      0.135094
     98 H42         0.2080    7.2110    1.8060 ha        1 MOL      0.135094
     99 H43        -0.0020    9.1920   -2.6830 ha        1 MOL      0.142126
    100 H44         0.2150    9.7250    1.5630 ha        1 MOL      0.142126
    101 H45        -0.2550   11.2140   -1.6380 ho        1 MOL      0.346873
    102 N10         0.5280    2.8510    2.0500 n         1 MOL     -0.736448
    103 C34         0.2310    1.4780    2.5320 c3        1 MOL      0.059387
    104 C35        -0.1170    0.4370    1.4570 c         1 MOL      0.628206
    105 O15         0.7970   -0.0140    0.7160 o         1 MOL     -0.458333
    106 C36         1.2590    0.8130    3.5120 c3        1 MOL      0.369156
    107 C37         0.6900   -0.3430    4.3030 c3        1 MOL     -0.491707
    108 C38         1.8320    1.8110    4.5130 c3        1 MOL     -0.025582
    109 C39        -0.3450   -0.0880    5.3690 c3        1 MOL     -0.024557
    110 H46         0.0790    3.5870    2.5850 hn        1 MOL      0.349022
    111 H47        -0.7510    1.5450    3.0070 h1        1 MOL      0.065117
    112 H48         2.0360    0.3370    2.9090 hc        1 MOL     -0.096238
    113 H49         1.4610   -0.7690    4.9450 hc        1 MOL      0.129920
    114 H50         0.4770   -1.2130    3.6780 hc        1 MOL      0.129920
    115 H51         2.4480    1.3770    5.2950 hc        1 MOL      0.016569
    116 H52         2.3900    2.6230    4.0540 hc        1 MOL      0.016569
    117 H53         0.9930    2.2690    5.0510 hc        1 MOL      0.016569
    118 H54        -1.2580    0.3540    4.9780 hc        1 MOL      0.021082
    119 H55        -0.6580   -1.0330    5.8210 hc        1 MOL      0.021082
    120 H56        -0.0240    0.6430    6.1120 hc        1 MOL      0.021082
    121 N11        -1.4020   -0.0500    1.4790 n         1 MOL     -0.601822
    122 C40        -1.8210   -1.1410    0.5390 c3        1 MOL     -0.072893
    123 C41        -3.2310   -1.2100    0.0600 c         1 MOL      0.557020
    124 O16        -3.4520   -2.0290   -0.8080 o         1 MOL     -0.543111
    125 C42        -1.3900   -2.5240    1.0230 c3        1 MOL      0.624956
    126 O17        -2.0350   -2.7560    2.2430 oh        1 MOL     -0.663466
    127 H57        -2.1490    0.4280    1.9660 hn        1 MOL      0.322342
    128 H58        -1.1810   -1.0320   -0.3370 h1        1 MOL      0.105617
    129 H59        -0.3070   -2.4250    1.1360 h1        1 MOL     -0.124260
    130 H60        -1.5620   -3.3240    0.3170 h1        1 MOL     -0.124260
    131 H61        -1.3660   -2.8720    2.9330 ho        1 MOL      0.405853
    132 N12        -4.1960   -0.3910    0.4340 n         1 MOL     -0.474097
    133 C43        -5.5660   -0.2570   -0.0660 c3        1 MOL      0.037304
    134 C44        -5.7200    0.5690   -1.3100 c         1 MOL      0.641646
    135 O18        -4.8370    1.3660   -1.6860 o         1 MOL     -0.586904
    136 C45        -6.3030    0.2760    1.1380 c3        1 MOL     -0.161874
    137 H62        -3.9010    0.1470    1.2320 hn        1 MOL      0.283838
    138 H63        -5.8840   -1.2720   -0.3410 h1        1 MOL      0.123769
    139 H64        -6.1150   -0.3970    1.9800 hc        1 MOL      0.068877
    140 H65        -5.7860    1.2030    1.3850 hc        1 MOL      0.068877
    141 H66        -7.3640    0.4680    0.9430 hc        1 MOL      0.068877
    142 N13        -6.8310    0.4600   -2.0790 n         1 MOL     -0.672576
    143 C46        -8.0570   -0.3500   -1.8720 c3        1 MOL      0.420690
    144 C47        -9.2220    0.4030   -2.4920 c         1 MOL      0.390592
    145 O19        -9.1000    0.8630   -3.5640 o         1 MOL     -0.513358
    146 C48        -7.9870   -1.7720   -2.4560 c3        1 MOL     -0.239571
    147 H67        -6.8400    1.0680   -2.8950 hn        1 MOL      0.335901
    148 H68        -8.1670   -0.4210   -0.7880 h1        1 MOL     -0.078734
    149 H69        -7.1620   -2.2660   -1.9580 hc        1 MOL      0.070087
    150 H70        -8.8580   -2.3820   -2.2140 hc        1 MOL      0.070087
    151 H71        -7.7480   -1.6560   -3.5260 hc        1 MOL      0.070087
    152 N14       -10.3740    0.4920   -1.8330 n         1 MOL     -0.409809
    153 C49       -10.5870   -0.1810   -0.5370 c3        1 MOL     -0.221046
    154 C50       -10.1490    0.6890    0.6600 c         1 MOL      0.582228
    155 O20       -10.0170    0.1870    1.7380 o         1 MOL     -0.516796
    156 C51       -12.0520   -0.3480   -0.4440 c3        1 MOL      0.389314
    157 C52       -12.3820   -1.4950    0.5920 c3        1 MOL     -0.390536
    158 C53       -13.8910   -1.7240    0.6640 c         1 MOL      0.779803
    159 O21       -14.6400   -0.7880    0.8850 o         1 MOL     -0.683169
    160 O22       -14.3550   -2.8630    0.4430 o         1 MOL     -0.683169
    161 H72       -11.1250    0.8940   -2.3780 hn        1 MOL      0.287648
    162 H73       -10.1280   -1.1680   -0.5100 h1        1 MOL      0.130971
    163 H74       -12.5070   -0.7550   -1.3530 hc        1 MOL     -0.059870
    164 H75       -12.5970    0.5690   -0.2440 hc        1 MOL     -0.059870
    165 H76       -12.0910   -1.3140    1.6210 hc        1 MOL      0.068302
    166 H77       -11.9060   -2.3840    0.1770 hc        1 MOL      0.068302
    167 N15        -9.9950    2.0010    0.4190 n         1 MOL     -0.319343
    168 C54        -9.3700    2.8010    1.4640 c3        1 MOL     -0.205502
    169 H78        -8.8110    3.6190    1.0090 h1        1 MOL      0.095612
    170 H79       -10.1400    3.2090    2.1190 h1        1 MOL      0.095612
    171 H80        -8.6920    2.1760    2.0450 h1        1 MOL      0.095612
    172 H81       -10.4720    2.4510   -0.3550 hn        1 MOL      0.266081
    173 Ca1         2.8760    0.4460   -1.0200 Ca        1 MOL      1.804388
    174 O23         0.7940    1.8960   -2.0000 oh        1 MOL     -0.959914
    175 H82         0.8780    2.6970   -2.5140 ho        1 MOL      0.452245
    176 H83        -0.1430    1.7780   -1.8900 ho        1 MOL      0.452245
    177 O24         1.1420   -1.0390   -2.6520 oh        1 MOL     -0.959914
    178 H84         0.6090   -0.6500   -3.3490 ho        1 MOL      0.452245
    179 H85         1.8000   -1.5570   -3.1200 ho        1 MOL      0.452245
@<TRIPOS>BOND
     1    1    2 1   
     2    1    4 1   
     3    1    5 1   
     4    1    6 1   
     5    2    3 2   
     6    2    7 1   
     7    7    8 1   
     8    7   15 1   
     9    8    9 1   
    10    8   11 1   
    11    8   16 1   
    12    9   10 2   
    13    9   19 1   
    14   11   12 1   
    15   11   17 1   
    16   11   18 1   
    17   12   13 1   
    18   12   14 1   
    19   19   20 1   
    20   19   28 1   
    21   20   21 1   
    22   20   23 1   
    23   20   29 1   
    24   21   22 2   
    25   21   41 1   
    26   23   24 1   
    27   23   30 1   
    28   23   31 1   
    29   24   25 1   
    30   24   32 1   
    31   24   33 1   
    32   25   26 1   
    33   25   34 1   
    34   25   35 1   
    35   26   27 1   
    36   26   36 1   
    37   26   37 1   
    38   27   38 1   
    39   27   39 1   
    40   27   40 1   
    41   41   42 1   
    42   41   49 1   
    43   42   43 1   
    44   42   45 1   
    45   42   50 1   
    46   43   44 2   
    47   43   53 1   
    48   45   46 1   
    49   45   51 1   
    50   45   52 1   
    51   46   47 1   
    52   46   48 1   
    53   53   54 1   
    54   53   57 1   
    55   54   55 1   
    56   54   58 1   
    57   54   59 1   
    58   55   56 2   
    59   55   60 1   
    60   60   61 1   
    61   60   68 1   
    62   61   62 1   
    63   61   64 1   
    64   61   69 1   
    65   62   63 2   
    66   62   74 1   
    67   64   65 1   
    68   64   70 1   
    69   64   71 1   
    70   65   66 1   
    71   65   67 2   
    72   66   72 1   
    73   66   73 1   
    74   74   75 1   
    75   74   78 1   
    76   75   76 1   
    77   75   79 1   
    78   75   80 1   
    79   76   77 2   
    80   76   81 1   
    81   81   82 1   
    82   81   93 1   
    83   82   83 1   
    84   82   85 1   
    85   82   94 1   
    86   83   84 2   
    87   83  102 1   
    88   85   86 1   
    89   85   95 1   
    90   85   96 1   
    91   86   87 ar  
    92   86   88 ar  
    93   87   89 ar  
    94   87   97 1   
    95   88   90 ar  
    96   88   98 1   
    97   89   91 ar  
    98   89   99 1   
    99   90   91 ar  
   100   90  100 1   
   101   91   92 1   
   102   92  101 1   
   103  102  103 1   
   104  102  110 1   
   105  103  104 1   
   106  103  106 1   
   107  103  111 1   
   108  104  105 2   
   109  104  121 1   
   110  106  107 1   
   111  106  108 1   
   112  106  112 1   
   113  107  109 1   
   114  107  113 1   
   115  107  114 1   
   116  108  115 1   
   117  108  116 1   
   118  108  117 1   
   119  109  118 1   
   120  109  119 1   
   121  109  120 1   
   122  121  122 1   
   123  121  127 1   
   124  122  123 1   
   125  122  125 1   
   126  122  128 1   
   127  123  124 2   
   128  123  132 1   
   129  125  126 1   
   130  125  129 1   
   131  125  130 1   
   132  126  131 1   
   133  132  133 1   
   134  132  137 1   
   135  133  134 1   
   136  133  136 1   
   137  133  138 1   
   138  134  135 2   
   139  134  142 1   
   140  136  139 1   
   141  136  140 1   
   142  136  141 1   
   143  142  143 1   
   144  142  147 1   
   145  143  144 1   
   146  143  146 1   
   147  143  148 1   
   148  144  145 2   
   149  144  152 1   
   150  146  149 1   
   151  146  150 1   
   152  146  151 1   
   153  152  153 1   
   154  152  161 1   
   155  153  154 1   
   156  153  156 1   
   157  153  162 1   
   158  154  155 2   
   159  154  167 1   
   160  156  157 1   
   161  156  163 1   
   162  156  164 1   
   163  157  158 1   
   164  157  165 1   
   165  157  166 1   
   166  158  159 1   
   167  158  160 1   
   168  167  168 1   
   169  167  172 1   
   170  168  169 1   
   171  168  170 1   
   172  168  171 1   
   173  174  175 1   
   174  174  176 1   
   175  177  178 1   
   176  177  179 1   
@<TRIPOS>SUBSTRUCTURE
     1 MOL         1 TEMP              0 ****  ****    0 ROOT
