@<TRIPOS>MOLECULE
MOL
  195   189     1     0     0
SMALL
resp


@<TRIPOS>ATOM
      1 C1          4.6210   -6.4460    1.7240 c3        1 MOL     -0.349315
      2 C2          4.2670   -4.9740    1.3740 c         1 MOL      0.730680
      3 O1          3.9550   -4.1350    2.2820 o         1 MOL     -0.658914
      4 H1          4.1600   -7.1130    0.9940 hc        1 MOL      0.104047
      5 H2          5.7020   -6.5760    1.7010 hc        1 MOL      0.104047
      6 H3          4.2470   -6.6840    2.7200 hc        1 MOL      0.104047
      7 N1          4.2380   -4.5770    0.1020 n         1 MOL     -0.669322
      8 C3          3.9860   -3.2310   -0.3870 c3        1 MOL      0.301415
      9 C4          2.6050   -2.9910   -0.9200 c         1 MOL      0.481820
     10 O2          2.3870   -2.0360   -1.5700 o         1 MOL     -0.451214
     11 C5          5.1350   -2.7610   -1.2760 c3        1 MOL     -0.096736
     12 C6          5.1640   -3.5440   -2.5990 c         1 MOL      0.644220
     13 O3          5.2550   -4.7770   -2.5780 o         1 MOL     -0.669388
     14 O4          5.0470   -2.8490   -3.6400 o         1 MOL     -0.669388
     15 H4          4.4980   -5.2500   -0.6030 hn        1 MOL      0.341831
     16 H5          4.0350   -2.4780    0.4000 h1        1 MOL      0.012002
     17 H6          6.0880   -2.9340   -0.7680 hc        1 MOL      0.016130
     18 H7          5.1220   -1.6830   -1.4310 hc        1 MOL      0.016130
     19 N2          1.5400   -3.7450   -0.5060 n         1 MOL     -0.501151
     20 C7          0.1690   -3.4710   -0.8910 c3        1 MOL      0.320260
     21 C8         -0.6680   -3.3870    0.3770 c         1 MOL      0.475102
     22 O5         -0.7550   -4.2920    1.2100 o         1 MOL     -0.583429
     23 C9         -0.2360   -4.6360   -1.8020 c3        1 MOL     -0.273432
     24 C10        -1.6900   -4.5310   -2.3010 c3        1 MOL      0.123568
     25 C11        -2.1750   -5.7880   -2.9540 c3        1 MOL      0.026922
     26 C12        -3.4430   -5.4530   -3.7400 c3        1 MOL      0.002627
     27 N3         -3.7840   -6.6050   -4.6780 n4        1 MOL     -0.308724
     28 H8          1.5770   -4.4610    0.2070 hn        1 MOL      0.253960
     29 H9          0.1180   -2.5950   -1.5470 h1        1 MOL      0.045531
     30 H10        -0.0620   -5.5630   -1.2530 hc        1 MOL      0.069537
     31 H11         0.4070   -4.6830   -2.6830 hc        1 MOL      0.069537
     32 H12        -1.8910   -3.5900   -2.8170 hc        1 MOL     -0.017004
     33 H13        -2.3960   -4.4130   -1.4720 hc        1 MOL     -0.017004
     34 H14        -2.2220   -6.6360   -2.2820 hc        1 MOL      0.012018
     35 H15        -1.3840   -5.9490   -3.7020 hc        1 MOL      0.012018
     36 H16        -3.2580   -4.5290   -4.3010 hx        1 MOL      0.111295
     37 H17        -4.2540   -5.4090   -3.0170 hx        1 MOL      0.111295
     38 H18        -3.7280   -7.5490   -4.3110 hn        1 MOL      0.301770
     39 H19        -4.7510   -6.4620   -4.9420 hn        1 MOL      0.301770
     40 H20        -3.2960   -6.6260   -5.5550 hn        1 MOL      0.301770
     41 N4         -1.4050   -2.3070    0.7080 n         1 MOL     -0.319194
     42 C13        -1.7640   -1.0330    0.0260 c3        1 MOL     -0.071902
     43 C14        -2.2590   -1.1240   -1.4200 c         1 MOL      0.587459
     44 O6         -1.5360   -0.8160   -2.3820 o         1 MOL     -0.583802
     45 C15        -0.6010   -0.0770    0.1810 c3        1 MOL     -0.732084
     46 C16        -0.0060    0.1820    1.5630 c         1 MOL      1.065885
     47 O7          1.2190    0.4650    1.6770 o         1 MOL     -0.845385
     48 O8         -0.6050    0.2720    2.6490 o         1 MOL     -0.845385
     49 H21        -1.8570   -2.2310    1.6120 hn        1 MOL      0.253792
     50 H22        -2.6160   -0.7290    0.6380 h1        1 MOL      0.132852
     51 H23        -0.9120    0.9200   -0.1340 hc        1 MOL      0.261260
     52 H24         0.1310   -0.4650   -0.5210 hc        1 MOL      0.261260
     53 N5         -3.4580   -1.5850   -1.6840 n         1 MOL     -0.365776
     54 C17        -4.4140   -2.1060   -0.7170 c3        1 MOL     -0.232091
     55 C18        -5.7580   -2.5820   -1.3890 c         1 MOL      0.785224
     56 O9         -5.7890   -2.9470   -2.5450 o         1 MOL     -0.639331
     57 H25        -3.6510   -1.5870   -2.6680 hn        1 MOL      0.290384
     58 H26        -4.7670   -1.3390   -0.0350 h1        1 MOL      0.116693
     59 H27        -3.9210   -2.7610    0.0080 h1        1 MOL      0.116693
     60 N6         -6.8410   -2.8510   -0.6250 n         1 MOL     -0.643669
     61 C19        -6.9670   -2.8090    0.8420 c3        1 MOL      0.155072
     62 C20        -7.5830   -1.4370    1.2200 c         1 MOL      0.459451
     63 O10        -8.1900   -0.8190    0.3100 o         1 MOL     -0.464974
     64 C21        -7.7850   -3.9290    1.3980 c3        1 MOL     -0.166400
     65 C22        -9.1300   -4.0600    0.7280 c         1 MOL      0.753798
     66 O11       -10.0490   -3.4090    1.2520 o         1 MOL     -0.708462
     67 O12        -9.2170   -4.7320   -0.3270 o         1 MOL     -0.708462
     68 H28        -7.7000   -3.1000   -1.0950 hn        1 MOL      0.371219
     69 H29        -5.9980   -2.8930    1.3330 h1        1 MOL     -0.017791
     70 H30        -8.0140   -3.7780    2.4550 hc        1 MOL      0.003821
     71 H31        -7.3540   -4.9270    1.2790 hc        1 MOL      0.003821
     72 N7         -7.5670   -1.0290    2.4810 n         1 MOL     -0.242602
     73 C23        -8.0090    0.3370    2.9540 c3        1 MOL     -0.343879
     74 C24        -7.0620    1.5290    2.6310 c         1 MOL      0.557205
     75 O13        -7.4390    2.6930    2.9140 o         1 MOL     -0.566726
     76 H32        -7.1320   -1.6640    3.1300 hn        1 MOL      0.240559
     77 H33        -8.2130    0.2790    4.0260 h1        1 MOL      0.182349
     78 H34        -8.8540    0.6730    2.3610 h1        1 MOL      0.182349
     79 N8         -5.9090    1.2530    2.0580 n         1 MOL     -0.290147
     80 C25        -4.8360    2.2530    1.7930 c3        1 MOL     -0.025133
     81 C26        -4.5250    2.2670    0.2740 c         1 MOL      0.597569
     82 O14        -4.6370    1.2410   -0.4020 o         1 MOL     -0.526107
     83 C27        -3.5830    1.8010    2.6080 c3        1 MOL      0.451867
     84 C28        -3.5250    2.2440    4.0230 c3        1 MOL     -0.216608
     85 O15        -2.4000    2.2300    2.0140 oh        1 MOL     -0.637352
     86 H35        -5.6940    0.2900    1.8380 hn        1 MOL      0.082096
     87 H36        -5.1090    3.2630    2.0790 h1        1 MOL      0.076222
     88 H37        -3.4870    0.7090    2.5810 h1        1 MOL     -0.036716
     89 H38        -1.7920    1.5700    2.3620 ho        1 MOL      0.355105
     90 H39        -2.5120    1.9790    4.3080 hc        1 MOL      0.044664
     91 H40        -3.6630    3.3170    4.1960 hc        1 MOL      0.044664
     92 H41        -4.1660    1.5960    4.6090 hc        1 MOL      0.044664
     93 N9         -4.3340    3.5090   -0.2430 n         1 MOL     -0.407883
     94 C29        -4.5110    3.8680   -1.6720 c3        1 MOL     -0.139162
     95 C30        -3.2590    4.3500   -2.2780 c         1 MOL      0.421788
     96 O16        -3.2220    5.1140   -3.2740 o         1 MOL     -0.533720
     97 C31        -5.6730    4.8590   -1.8710 c3        1 MOL      0.221253
     98 C32        -5.3540    6.1520   -1.2060 c3        1 MOL      0.103171
     99 C33        -7.0430    4.2380   -1.3210 c3        1 MOL     -0.403902
    100 C34        -6.2160    7.3630   -1.6730 c3        1 MOL     -0.241220
    101 H42        -4.2890    4.3080    0.3620 hn        1 MOL      0.262710
    102 H43        -4.7530    2.9320   -2.1900 h1        1 MOL      0.139055
    103 H44        -5.8530    5.0710   -2.9230 hc        1 MOL      0.004259
    104 H45        -4.3130    6.4650   -1.2380 hc        1 MOL     -0.003511
    105 H46        -5.6220    6.0320   -0.1530 hc        1 MOL     -0.003511
    106 H47        -7.8950    4.7600   -1.7590 hc        1 MOL      0.112314
    107 H48        -6.9880    3.1640   -1.4470 hc        1 MOL      0.112314
    108 H49        -7.1160    4.3830   -0.2440 hc        1 MOL      0.112314
    109 H50        -5.9380    7.5940   -2.7070 hc        1 MOL      0.059399
    110 H51        -7.2780    7.0970   -1.6780 hc        1 MOL      0.059399
    111 H52        -6.0360    8.2520   -1.0720 hc        1 MOL      0.059399
    112 N10        -2.0680    3.8980   -1.7800 n         1 MOL     -0.056887
    113 C35        -0.6960    4.3020   -2.2850 c3        1 MOL     -0.523973
    114 C36         0.3440    3.3060   -1.8250 c         1 MOL      0.648787
    115 O17         0.2860    2.8350   -0.6730 o         1 MOL     -0.483268
    116 C37        -0.2250    5.7110   -1.9430 c3        1 MOL      0.496845
    117 C38        -0.2440    6.0770   -0.4520 c3        1 MOL     -0.059434
    118 O18        -1.0600    6.6200   -2.5970 oh        1 MOL     -0.650752
    119 H53        -2.1870    3.2580   -1.0190 hn        1 MOL      0.107367
    120 H54        -0.8540    4.1150   -3.3520 h1        1 MOL      0.157958
    121 H55         0.8050    5.8340   -2.2790 h1        1 MOL     -0.012106
    122 H56        -1.7650    6.0940   -2.9900 ho        1 MOL      0.391637
    123 H57         0.2490    5.2660    0.0860 hc        1 MOL      0.009766
    124 H58         0.1930    7.0360   -0.1820 hc        1 MOL      0.009766
    125 H59        -1.2870    6.0810   -0.1230 hc        1 MOL      0.009766
    126 N11         1.3170    3.0560   -2.6540 n         1 MOL     -0.344556
    127 C39         2.3880    2.0810   -2.3820 c3        1 MOL     -0.199869
    128 C40         3.6580    2.9060   -2.1040 c         1 MOL      0.636071
    129 O19         3.7270    4.0760   -2.5500 o         1 MOL     -0.542172
    130 C41         2.5460    1.2020   -3.6320 c3        1 MOL      0.364171
    131 C42         1.2890    0.5300   -3.9960 c3        1 MOL     -0.508277
    132 O20         3.5730    0.2780   -3.3960 oh        1 MOL     -0.413746
    133 H60         1.3700    3.4490   -3.5770 hn        1 MOL      0.257991
    134 H61         2.0950    1.4860   -1.5130 h1        1 MOL      0.122162
    135 H62         2.8730    1.8190   -4.4720 h1        1 MOL      0.004501
    136 H63         3.1410   -0.5030   -3.0720 ho        1 MOL      0.194034
    137 H64         1.1770   -0.3190   -3.3250 hc        1 MOL      0.145423
    138 H65         0.4060    1.1600   -4.0040 hc        1 MOL      0.145423
    139 H66         1.4420    0.1640   -5.0180 hc        1 MOL      0.145423
    140 N12         4.6650    2.2520   -1.5270 n         1 MOL     -0.607910
    141 C43         6.1060    2.6340   -1.4660 c3        1 MOL      0.166309
    142 C44         6.6460    2.7370   -0.0000 c         1 MOL      0.506798
    143 O21         7.6850    3.3370    0.2760 o         1 MOL     -0.552273
    144 C45         6.9480    1.4890   -2.1480 c3        1 MOL     -0.228116
    145 C46         6.7560    1.4470   -3.6510 c3        1 MOL      0.136712
    146 C47         7.4270    0.1970   -4.2730 c3        1 MOL     -0.029129
    147 C48         6.7500   -0.0340   -5.6540 c3        1 MOL     -0.052447
    148 N13         5.4570   -0.7910   -5.4660 n4        1 MOL     -0.285635
    149 H67         4.4090    1.2850   -1.3960 hn        1 MOL      0.338753
    150 H68         6.3910    3.5550   -1.9760 h1        1 MOL      0.098684
    151 H69         6.6170    0.5050   -1.8340 hc        1 MOL      0.052177
    152 H70         8.0130    1.5810   -1.9740 hc        1 MOL      0.052177
    153 H71         7.1190    2.3720   -4.0990 hc        1 MOL     -0.014576
    154 H72         5.6960    1.3750   -3.8670 hc        1 MOL     -0.014576
    155 H73         7.2100   -0.6930   -3.6780 hc        1 MOL      0.050860
    156 H74         8.4980    0.2970   -4.4310 hc        1 MOL      0.050860
    157 H75         7.4840   -0.5320   -6.2890 hx        1 MOL      0.083215
    158 H76         6.5560    0.9250   -6.1250 hx        1 MOL      0.083215
    159 H77         5.3590   -1.3800   -6.2790 hn        1 MOL      0.284069
    160 H78         5.4690   -1.3910   -4.6540 hn        1 MOL      0.284069
    161 H79         4.6630   -0.1730   -5.4710 hn        1 MOL      0.284069
    162 N14         5.9590    2.0690    0.9190 n         1 MOL     -0.430170
    163 C49         6.3250    1.7940    2.3380 c3        1 MOL      0.057694
    164 C50         7.0930    0.4220    2.5370 c         1 MOL      0.400380
    165 O22         6.5250   -0.6520    2.7940 o         1 MOL     -0.503075
    166 C51         5.0890    1.8410    3.2260 c3        1 MOL     -0.162240
    167 C52         5.5030    1.7100    4.7210 c3        1 MOL     -0.102100
    168 C53         4.1680    1.7310    5.5700 c         1 MOL      0.611388
    169 O23         3.7730    2.6970    6.2870 o         1 MOL     -0.677160
    170 O24         3.4730    0.6830    5.4880 o         1 MOL     -0.677160
    171 H80         5.2390    1.5000    0.5130 hn        1 MOL      0.269616
    172 H81         6.9980    2.5600    2.7140 h1        1 MOL      0.083887
    173 H82         4.4520    1.0040    2.9610 hc        1 MOL      0.086628
    174 H83         4.5580    2.7880    3.0770 hc        1 MOL      0.086628
    175 H84         6.0690    2.5720    5.0640 hc        1 MOL      0.031643
    176 H85         6.1730    0.8810    4.9420 hc        1 MOL      0.031643
    177 N15         8.3840    0.5330    2.4160 n         1 MOL     -0.219795
    178 C54         9.3100   -0.5710    2.6210 c3        1 MOL     -0.242303
    179 H86        10.3240   -0.1810    2.7200 h1        1 MOL      0.117925
    180 H87         9.0390   -1.1100    3.5290 h1        1 MOL      0.117925
    181 H88         9.2650   -1.2480    1.7690 h1        1 MOL      0.117925
    182 H89         8.7620    1.4740    2.4400 hn        1 MOL      0.254829
    183 Ca1         1.3630   -0.3470    4.2480 Ca        1 MOL      1.814060
    184 O25         2.2330   -2.1120    6.1640 oh        1 MOL     -0.964828
    185 H90         3.0200   -2.6130    5.9700 ho        1 MOL      0.467372
    186 H91         2.1660   -2.1210    7.1180 ho        1 MOL      0.467372
    187 O26         0.8060   -2.7000    3.2470 oh        1 MOL     -0.964828
    188 H92         0.5300   -3.2470    3.9840 ho        1 MOL      0.467372
    189 H93         0.9170   -3.3110    2.5180 ho        1 MOL      0.467372
    190 O27         3.8080   -1.4980    3.2250 oh        1 MOL     -0.964828
    191 H94         3.7890   -2.4450    3.0590 ho        1 MOL      0.467372
    192 H95         4.6110   -1.1920    2.8080 ho        1 MOL      0.467372
    193 O28         1.5990    2.4710    3.8210 oh        1 MOL     -0.964828
    194 H96         1.6990    3.3620    4.1620 ho        1 MOL      0.467372
    195 H97         1.3670    2.5990    2.8990 ho        1 MOL      0.467372
@<TRIPOS>BOND
     1    1    2 1   
     2    1    4 1   
     3    1    5 1   
     4    1    6 1   
     5    2    3 2   
     6    2    7 1   
     7    7    8 1   
     8    7   15 1   
     9    8    9 1   
    10    8   11 1   
    11    8   16 1   
    12    9   10 2   
    13    9   19 1   
    14   11   12 1   
    15   11   17 1   
    16   11   18 1   
    17   12   13 1   
    18   12   14 1   
    19   19   20 1   
    20   19   28 1   
    21   20   21 1   
    22   20   23 1   
    23   20   29 1   
    24   21   22 2   
    25   21   41 1   
    26   23   24 1   
    27   23   30 1   
    28   23   31 1   
    29   24   25 1   
    30   24   32 1   
    31   24   33 1   
    32   25   26 1   
    33   25   34 1   
    34   25   35 1   
    35   26   27 1   
    36   26   36 1   
    37   26   37 1   
    38   27   38 1   
    39   27   39 1   
    40   27   40 1   
    41   41   42 1   
    42   41   49 1   
    43   42   43 1   
    44   42   45 1   
    45   42   50 1   
    46   43   44 2   
    47   43   53 1   
    48   45   46 1   
    49   45   51 1   
    50   45   52 1   
    51   46   47 1   
    52   46   48 1   
    53   53   54 1   
    54   53   57 1   
    55   54   55 1   
    56   54   58 1   
    57   54   59 1   
    58   55   56 2   
    59   55   60 1   
    60   60   61 1   
    61   60   68 1   
    62   61   62 1   
    63   61   64 1   
    64   61   69 1   
    65   62   63 2   
    66   62   72 1   
    67   64   65 1   
    68   64   70 1   
    69   64   71 1   
    70   65   66 1   
    71   65   67 1   
    72   72   73 1   
    73   72   76 1   
    74   73   74 1   
    75   73   77 1   
    76   73   78 1   
    77   74   75 2   
    78   74   79 1   
    79   79   80 1   
    80   79   86 1   
    81   80   81 1   
    82   80   83 1   
    83   80   87 1   
    84   81   82 2   
    85   81   93 1   
    86   83   84 1   
    87   83   85 1   
    88   83   88 1   
    89   84   90 1   
    90   84   91 1   
    91   84   92 1   
    92   85   89 1   
    93   93   94 1   
    94   93  101 1   
    95   94   95 1   
    96   94   97 1   
    97   94  102 1   
    98   95   96 2   
    99   95  112 1   
   100   97   98 1   
   101   97   99 1   
   102   97  103 1   
   103   98  100 1   
   104   98  104 1   
   105   98  105 1   
   106   99  106 1   
   107   99  107 1   
   108   99  108 1   
   109  100  109 1   
   110  100  110 1   
   111  100  111 1   
   112  112  113 1   
   113  112  119 1   
   114  113  114 1   
   115  113  116 1   
   116  113  120 1   
   117  114  115 2   
   118  114  126 1   
   119  116  117 1   
   120  116  118 1   
   121  116  121 1   
   122  117  123 1   
   123  117  124 1   
   124  117  125 1   
   125  118  122 1   
   126  126  127 1   
   127  126  133 1   
   128  127  128 1   
   129  127  130 1   
   130  127  134 1   
   131  128  129 2   
   132  128  140 1   
   133  130  131 1   
   134  130  132 1   
   135  130  135 1   
   136  131  137 1   
   137  131  138 1   
   138  131  139 1   
   139  132  136 1   
   140  140  141 1   
   141  140  149 1   
   142  141  142 1   
   143  141  144 1   
   144  141  150 1   
   145  142  143 2   
   146  142  162 1   
   147  144  145 1   
   148  144  151 1   
   149  144  152 1   
   150  145  146 1   
   151  145  153 1   
   152  145  154 1   
   153  146  147 1   
   154  146  155 1   
   155  146  156 1   
   156  147  148 1   
   157  147  157 1   
   158  147  158 1   
   159  148  159 1   
   160  148  160 1   
   161  148  161 1   
   162  162  163 1   
   163  162  171 1   
   164  163  164 1   
   165  163  166 1   
   166  163  172 1   
   167  164  165 2   
   168  164  177 1   
   169  166  167 1   
   170  166  173 1   
   171  166  174 1   
   172  167  168 1   
   173  167  175 1   
   174  167  176 1   
   175  168  169 1   
   176  168  170 1   
   177  177  178 1   
   178  177  182 1   
   179  178  179 1   
   180  178  180 1   
   181  178  181 1   
   182  184  185 1   
   183  184  186 1   
   184  187  188 1   
   185  187  189 1   
   186  190  191 1   
   187  190  192 1   
   188  193  194 1   
   189  193  195 1   
@<TRIPOS>SUBSTRUCTURE
     1 MOL         1 TEMP              0 ****  ****    0 ROOT
