@<TRIPOS>MOLECULE
MOL
  192   187     1     0     0
SMALL
resp


@<TRIPOS>ATOM
      1 C1          4.5660    3.9260   -3.3320 c3        1 MOL     -0.473067
      2 C2          5.3030    3.0330   -2.2670 c         1 MOL      0.959010
      3 O1          4.9080    2.9270   -1.0770 o         1 MOL     -0.730185
      4 H1          5.1560    4.8230   -3.5240 hc        1 MOL      0.116678
      5 H2          4.4470    3.3650   -4.2590 hc        1 MOL      0.116678
      6 H3          3.5860    4.2120   -2.9510 hc        1 MOL      0.116678
      7 N1          6.3930    2.3980   -2.6460 n         1 MOL     -0.823920
      8 C3          7.0820    1.2460   -1.9520 c3        1 MOL      0.395382
      9 C4          6.1720    0.1260   -1.5620 c         1 MOL      0.196207
     10 O2          5.7510    0.0060   -0.3710 o         1 MOL     -0.520946
     11 C5          8.1880    1.7410   -0.9360 c3        1 MOL     -0.181452
     12 C6          7.7340    2.9250   -0.0610 c         1 MOL      0.772380
     13 O3          6.9510    2.6200    0.8520 o         1 MOL     -0.744292
     14 O4          8.2370    4.0850   -0.2510 o         1 MOL     -0.744292
     15 H4          6.9250    2.7760   -3.4230 hn        1 MOL      0.342438
     16 H5          7.7270    0.8680   -2.7540 h1        1 MOL     -0.004005
     17 H6          9.0910    2.0780   -1.4290 hc        1 MOL      0.028689
     18 H7          8.4640    0.9050   -0.2900 hc        1 MOL      0.028689
     19 N2          5.5940   -0.3480   -2.6850 n         1 MOL     -0.264094
     20 C7          4.6850   -1.4690   -2.9410 c3        1 MOL     -0.008783
     21 C8          5.2180   -2.7660   -2.2230 c         1 MOL      0.424780
     22 O5          5.5100   -3.7060   -2.9120 o         1 MOL     -0.542755
     23 C9          3.2340   -1.0840   -2.6660 c3        1 MOL      0.413167
     24 C10         2.3130   -2.2510   -2.9350 c3        1 MOL     -0.099293
     25 C11         2.8090    0.2110   -3.3800 c3        1 MOL     -0.035802
     26 C12         2.2480   -2.7560   -4.3800 c3        1 MOL     -0.297989
     27 H8          5.9450    0.0560   -3.5360 hn        1 MOL      0.228146
     28 H9          4.7240   -1.7130   -3.9960 h1        1 MOL      0.028936
     29 H10         3.0820   -0.8090   -1.6210 hc        1 MOL     -0.179572
     30 H11         1.2840   -1.9550   -2.7180 hc        1 MOL      0.099046
     31 H12         2.6490   -3.1170   -2.3710 hc        1 MOL      0.099046
     32 H13         1.7420    0.3880   -3.2500 hc        1 MOL     -0.022440
     33 H14         3.2790    1.1500   -3.0620 hc        1 MOL     -0.022440
     34 H15         3.0800    0.2030   -4.4340 hc        1 MOL     -0.022440
     35 H16         3.2180   -3.2080   -4.5990 hc        1 MOL      0.054107
     36 H17         1.5020   -3.5470   -4.4870 hc        1 MOL      0.054107
     37 H18         2.0960   -1.9190   -5.0660 hc        1 MOL      0.054107
     38 N3          5.4320   -2.7690   -0.9250 n         1 MOL     -0.099217
     39 C13         5.9540   -3.9220   -0.2100 c3        1 MOL     -0.019030
     40 C14         5.0910   -5.1210    0.3460 c         1 MOL      0.500621
     41 O6          5.4800   -6.2690   -0.0050 o         1 MOL     -0.573821
     42 C15         6.8750   -3.4880    0.9470 c3        1 MOL     -0.247312
     43 C16         7.9090   -2.4050    0.5330 c         1 MOL      0.731215
     44 O7          8.1630   -1.5710    1.4180 o         1 MOL     -0.690247
     45 O8          8.5590   -2.3970   -0.5400 o         1 MOL     -0.690247
     46 H19         5.2210   -1.9670   -0.3530 hn        1 MOL      0.231364
     47 H20         6.6830   -4.3090   -0.9300 h1        1 MOL      0.062690
     48 H21         7.3310   -4.3750    1.3740 hc        1 MOL      0.065992
     49 H22         6.2600   -3.0290    1.7200 hc        1 MOL      0.065992
     50 N4          3.9070   -4.9760    0.9720 n         1 MOL     -0.436453
     51 C17         3.2210   -3.7240    1.3100 c3        1 MOL      0.192784
     52 C18         2.1170   -3.9480    2.3050 c         1 MOL      0.562445
     53 O9          1.6310   -5.1080    2.5770 o         1 MOL     -0.609858
     54 H23         3.4320   -5.8260    1.2310 hn        1 MOL      0.262524
     55 H24         2.8850   -3.3430    0.3480 h1        1 MOL     -0.025598
     56 H25         3.9500   -3.0150    1.7080 h1        1 MOL     -0.025598
     57 N5          1.6550   -2.9950    3.0400 n         1 MOL     -0.459674
     58 C19         1.9990   -1.5850    3.1010 c3        1 MOL      0.067991
     59 C20         2.2140   -0.8110    1.7380 c         1 MOL      0.494505
     60 O10         3.3230   -0.4210    1.3760 o         1 MOL     -0.614495
     61 C21         3.2050   -1.3500    4.0440 c3        1 MOL     -0.156451
     62 C22         3.0100   -1.8720    5.4060 c         1 MOL      0.686503
     63 O11         2.8620   -1.0220    6.3730 o         1 MOL     -0.727170
     64 O12         2.9710   -3.1110    5.6500 o         1 MOL     -0.727170
     65 H26         1.1020   -3.3710    3.7930 hn        1 MOL      0.325332
     66 H27         1.1080   -1.1240    3.5350 h1        1 MOL      0.069344
     67 H28         3.3570   -0.2690    4.0760 hc        1 MOL      0.035611
     68 H29         4.1590   -1.7640    3.7280 hc        1 MOL      0.035611
     69 N6          1.1890   -0.4710    1.0020 n         1 MOL     -0.388133
     70 C23        -0.2400   -0.9040    1.0380 c3        1 MOL      0.002386
     71 C24        -0.4060   -2.2750    0.3830 c         1 MOL      0.652901
     72 O13         0.2830   -2.6070   -0.5700 o         1 MOL     -0.523370
     73 H30         1.4680    0.0440    0.1870 hn        1 MOL      0.247161
     74 H31        -0.8910   -0.2200    0.4970 h1        1 MOL      0.056949
     75 H32        -0.6190   -0.9630    2.0600 h1        1 MOL      0.056949
     76 N7         -1.4410   -3.0140    0.8910 n         1 MOL     -0.637271
     77 C25        -1.7500   -4.3590    0.2680 c3        1 MOL     -0.156113
     78 C26        -2.4300   -4.2530   -1.1030 c         1 MOL      0.452567
     79 O14        -2.4560   -5.2060   -1.8550 o         1 MOL     -0.511921
     80 C27        -2.4700   -5.2350    1.2280 c3        1 MOL      0.360018
     81 C28        -3.6690   -4.6840    2.0060 c3        1 MOL     -0.360356
     82 C29        -4.8970   -4.5050    1.1620 c         1 MOL      0.651834
     83 N8         -5.8140   -5.3960    1.1040 n         1 MOL     -0.673556
     84 O15        -5.0380   -3.4810    0.6050 o         1 MOL     -0.540565
     85 H33        -2.0370   -2.5920    1.5800 hn        1 MOL      0.314638
     86 H34        -0.7800   -4.8350    0.1270 h1        1 MOL      0.165418
     87 H35        -1.8100   -5.6030    2.0140 hc        1 MOL     -0.041238
     88 H36        -2.7430   -6.1770    0.7550 hc        1 MOL     -0.041238
     89 H37        -3.4330   -3.7480    2.5270 hc        1 MOL      0.096391
     90 H38        -3.7990   -5.4850    2.7300 hc        1 MOL      0.096391
     91 H39        -5.7930   -6.2580    1.6370 hn        1 MOL      0.325461
     92 H40        -6.5510   -5.2430    0.4350 hn        1 MOL      0.325461
     93 N9         -2.8630   -3.0500   -1.5300 n         1 MOL     -0.221786
     94 C30        -3.3760   -2.7520   -2.9120 c3        1 MOL     -0.192414
     95 C31        -4.7560   -2.1140   -2.9960 c         1 MOL      0.461378
     96 O16        -5.3540   -2.0130   -4.0400 o         1 MOL     -0.555491
     97 C32        -2.3360   -1.9660   -3.7710 c3        1 MOL      0.292858
     98 C33        -1.3070   -2.9780   -4.3010 c3        1 MOL     -0.428463
     99 C34        -1.6730   -0.7870   -3.0350 c3        1 MOL     -0.428463
    100 H41        -2.8740   -2.2560   -0.9080 hn        1 MOL      0.230559
    101 H42        -3.4640   -3.7180   -3.3980 h1        1 MOL      0.141924
    102 H43        -2.8680   -1.5660   -4.6390 hc        1 MOL      0.006811
    103 H44        -0.8420   -3.5140   -3.4750 hc        1 MOL      0.111045
    104 H45        -1.8210   -3.8290   -4.7500 hc        1 MOL      0.111045
    105 H46        -0.5800   -2.4860   -4.9460 hc        1 MOL      0.111045
    106 H47        -0.8920   -0.4720   -3.7180 hc        1 MOL      0.111045
    107 H48        -2.4910   -0.1200   -2.7530 hc        1 MOL      0.111045
    108 H49        -1.2450   -1.0460   -2.0620 hc        1 MOL      0.111045
    109 N10        -5.3110   -1.7010   -1.8740 n         1 MOL     -0.283265
    110 C35        -6.6940   -1.1430   -1.8040 c3        1 MOL      0.071060
    111 C36        -6.8700    0.2990   -1.1820 c         1 MOL      0.486873
    112 O17        -7.9680    0.8870   -1.4110 o         1 MOL     -0.542778
    113 C37        -7.8070   -2.0870   -1.1800 c3        1 MOL     -0.334843
    114 C38        -7.6670   -3.5500   -1.5030 c         1 MOL      0.618509
    115 N11        -7.3330   -3.8510   -2.7500 n         1 MOL     -0.686694
    116 O18        -8.0960   -4.4850   -0.7860 o         1 MOL     -0.577566
    117 H50        -4.8280   -1.8710   -1.0080 hn        1 MOL      0.204670
    118 H51        -6.9750   -0.8900   -2.8200 h1        1 MOL      0.101168
    119 H52        -8.7120   -1.7640   -1.7110 hc        1 MOL      0.136762
    120 H53        -7.9670   -1.9830   -0.1060 hc        1 MOL      0.136762
    121 H54        -7.1310   -3.1800   -3.4610 hn        1 MOL      0.336976
    122 H55        -7.2330   -4.8260   -2.9990 hn        1 MOL      0.336976
    123 N12        -5.8240    0.9050   -0.5940 n         1 MOL     -0.460648
    124 C39        -5.8230    2.0920    0.2440 c3        1 MOL      0.286393
    125 C40        -4.4740    2.9730    0.0840 c         1 MOL      0.303113
    126 O19        -3.3330    2.4910    0.1130 o         1 MOL     -0.458236
    127 C41        -6.0330    1.8390    1.7950 c3        1 MOL     -0.124523
    128 C42        -7.2720    0.9950    2.0370 ca        1 MOL      0.105419
    129 C43        -8.4610    1.6090    2.4400 ca        1 MOL     -0.202120
    130 C44        -7.2610   -0.4220    1.9610 ca        1 MOL     -0.202120
    131 C45        -9.5920    0.8010    2.7140 ca        1 MOL     -0.159184
    132 C46        -8.3840   -1.1990    2.3670 ca        1 MOL     -0.159184
    133 C47        -9.5700   -0.5880    2.7130 ca        1 MOL      0.238482
    134 O20       -10.6540   -1.3970    3.0420 oh        1 MOL     -0.471745
    135 H56        -4.9450    0.4120   -0.6090 hn        1 MOL      0.247134
    136 H57        -6.6370    2.7630   -0.0550 h1        1 MOL      0.022434
    137 H58        -6.0890    2.8060    2.2960 hc        1 MOL      0.071784
    138 H59        -5.1100    1.4140    2.1830 hc        1 MOL      0.071784
    139 H60        -8.5820    2.6770    2.5220 ha        1 MOL      0.127102
    140 H61        -6.3600   -0.9650    1.7110 ha        1 MOL      0.127102
    141 H62       -10.5590    1.2330    2.9380 ha        1 MOL      0.104016
    142 H63        -8.4210   -2.2760    2.3150 ha        1 MOL      0.104016
    143 H64       -11.4590   -0.8830    2.9590 ho        1 MOL      0.347567
    144 N13        -4.6460    4.3250    0.0350 n         1 MOL     -0.585997
    145 C48        -3.6690    5.3380    0.4510 c3        1 MOL      0.263949
    146 C49        -2.4820    5.5740   -0.4150 c         1 MOL      0.210076
    147 O21        -2.0000    6.7220   -0.5550 o         1 MOL     -0.504489
    148 C50        -3.2340    5.0520    1.8960 c3        1 MOL     -0.175055
    149 C51        -2.5700    6.3480    2.3670 c3        1 MOL     -0.451669
    150 C52        -2.1880    6.2350    3.8350 c         1 MOL      0.767187
    151 O22        -1.1930    5.6100    4.2070 o         1 MOL     -0.744195
    152 O23        -2.8690    6.8720    4.7100 o         1 MOL     -0.744195
    153 H65        -5.5790    4.6860    0.1460 hn        1 MOL      0.312066
    154 H66        -4.1720    6.3060    0.4600 h1        1 MOL      0.044576
    155 H67        -2.5540    4.2000    1.9520 hc        1 MOL      0.105309
    156 H68        -4.1100    4.8400    2.5110 hc        1 MOL      0.105309
    157 H69        -3.1600    7.2540    2.2130 hc        1 MOL      0.128097
    158 H70        -1.6730    6.5130    1.7640 hc        1 MOL      0.128097
    159 N14        -1.9540    4.4840   -0.9770 n         1 MOL     -0.019169
    160 C53        -0.9330    4.5330   -2.0010 c3        1 MOL     -0.378882
    161 C54        -1.3870    5.1270   -3.3090 c         1 MOL      0.581287
    162 O24        -0.5700    5.5430   -4.1690 o         1 MOL     -0.567605
    163 C55        -0.2830    3.1830   -2.1470 c3        1 MOL      0.122255
    164 C56         0.1080    2.4560   -0.8310 c3        1 MOL      0.294089
    165 C57         1.2210    3.1660   -0.1060 c         1 MOL      0.709689
    166 O25         1.1210    4.3310    0.2910 o         1 MOL     -0.683953
    167 O26         2.3130    2.4970    0.0890 o         1 MOL     -0.683953
    168 H71        -2.5110    3.6440   -0.8450 hn        1 MOL      0.253025
    169 H72        -0.2510    5.2460   -1.5500 h1        1 MOL      0.221827
    170 H73         0.6740    3.3410   -2.6480 hc        1 MOL     -0.048261
    171 H74        -0.9000    2.5180   -2.7540 hc        1 MOL     -0.048261
    172 H75         0.5450    1.5040   -1.1320 hc        1 MOL     -0.132955
    173 H76        -0.7280    2.3200   -0.1410 hc        1 MOL     -0.132955
    174 N15        -2.6720    5.1800   -3.5220 n         1 MOL     -0.247478
    175 C58        -3.3300    6.0210   -4.5540 c3        1 MOL     -0.252285
    176 H77        -2.7420    6.9260   -4.7130 h1        1 MOL      0.105357
    177 H78        -3.3980    5.4640   -5.4890 h1        1 MOL      0.105357
    178 H79        -4.3300    6.2930   -4.2190 h1        1 MOL      0.105357
    179 H80        -3.3210    4.8380   -2.8220 hn        1 MOL      0.201505
    180 Ca1         4.5510    1.7990    1.2110 Ca        1 MOL      1.868317
    181 O27         6.3160   -0.0220    2.3880 oh        1 MOL     -0.882824
    182 H81         6.2320   -0.3300    3.2880 ho        1 MOL      0.421762
    183 H82         6.8690   -0.6920    1.9660 ho        1 MOL      0.421762
    184 O28         2.6340    2.6810    2.8170 oh        1 MOL     -0.882824
    185 H83         1.9820    3.3630    2.6760 ho        1 MOL      0.421762
    186 H84         2.4980    2.4200    3.7300 ho        1 MOL      0.421762
    187 O29         4.0820    4.7430    1.0660 oh        1 MOL     -0.882824
    188 H85         3.1830    4.5870    0.8030 ho        1 MOL      0.421762
    189 H86         4.2000    5.6890    0.9860 ho        1 MOL      0.421762
    190 O30         5.3760    1.8160    4.0730 oh        1 MOL     -0.882824
    191 H87         5.5950    2.7440    4.1590 ho        1 MOL      0.421762
    192 H88         5.4580    1.4720    4.9670 ho        1 MOL      0.421762
@<TRIPOS>BOND
     1    1    2 1   
     2    1    4 1   
     3    1    5 1   
     4    1    6 1   
     5    2    3 2   
     6    2    7 1   
     7    7    8 1   
     8    7   15 1   
     9    8    9 1   
    10    8   11 1   
    11    8   16 1   
    12    9   10 2   
    13    9   19 1   
    14   11   12 1   
    15   11   17 1   
    16   11   18 1   
    17   12   13 1   
    18   12   14 1   
    19   19   20 1   
    20   19   27 1   
    21   20   21 1   
    22   20   23 1   
    23   20   28 1   
    24   21   22 2   
    25   21   38 1   
    26   23   24 1   
    27   23   25 1   
    28   23   29 1   
    29   24   26 1   
    30   24   30 1   
    31   24   31 1   
    32   25   32 1   
    33   25   33 1   
    34   25   34 1   
    35   26   35 1   
    36   26   36 1   
    37   26   37 1   
    38   38   39 1   
    39   38   46 1   
    40   39   40 1   
    41   39   42 1   
    42   39   47 1   
    43   40   41 2   
    44   40   50 1   
    45   42   43 1   
    46   42   48 1   
    47   42   49 1   
    48   43   44 1   
    49   43   45 1   
    50   50   51 1   
    51   50   54 1   
    52   51   52 1   
    53   51   55 1   
    54   51   56 1   
    55   52   53 2   
    56   52   57 1   
    57   57   58 1   
    58   57   65 1   
    59   58   59 1   
    60   58   61 1   
    61   58   66 1   
    62   59   60 2   
    63   59   69 1   
    64   61   62 1   
    65   61   67 1   
    66   61   68 1   
    67   62   63 1   
    68   62   64 1   
    69   69   70 1   
    70   69   73 1   
    71   70   71 1   
    72   70   74 1   
    73   70   75 1   
    74   71   72 2   
    75   71   76 1   
    76   76   77 1   
    77   76   85 1   
    78   77   78 1   
    79   77   80 1   
    80   77   86 1   
    81   78   79 2   
    82   78   93 1   
    83   80   81 1   
    84   80   87 1   
    85   80   88 1   
    86   81   82 1   
    87   81   89 1   
    88   81   90 1   
    89   82   83 1   
    90   82   84 2   
    91   83   91 1   
    92   83   92 1   
    93   93   94 1   
    94   93  100 1   
    95   94   95 1   
    96   94   97 1   
    97   94  101 1   
    98   95   96 2   
    99   95  109 1   
   100   97   98 1   
   101   97   99 1   
   102   97  102 1   
   103   98  103 1   
   104   98  104 1   
   105   98  105 1   
   106   99  106 1   
   107   99  107 1   
   108   99  108 1   
   109  109  110 1   
   110  109  117 1   
   111  110  111 1   
   112  110  113 1   
   113  110  118 1   
   114  111  112 2   
   115  111  123 1   
   116  113  114 1   
   117  113  119 1   
   118  113  120 1   
   119  114  115 1   
   120  114  116 2   
   121  115  121 1   
   122  115  122 1   
   123  123  124 1   
   124  123  135 1   
   125  124  125 1   
   126  124  127 1   
   127  124  136 1   
   128  125  126 2   
   129  125  144 1   
   130  127  128 1   
   131  127  137 1   
   132  127  138 1   
   133  128  129 ar  
   134  128  130 ar  
   135  129  131 ar  
   136  129  139 1   
   137  130  132 ar  
   138  130  140 1   
   139  131  133 ar  
   140  131  141 1   
   141  132  133 ar  
   142  132  142 1   
   143  133  134 1   
   144  134  143 1   
   145  144  145 1   
   146  144  153 1   
   147  145  146 1   
   148  145  148 1   
   149  145  154 1   
   150  146  147 2   
   151  146  159 1   
   152  148  149 1   
   153  148  155 1   
   154  148  156 1   
   155  149  150 1   
   156  149  157 1   
   157  149  158 1   
   158  150  151 1   
   159  150  152 1   
   160  159  160 1   
   161  159  168 1   
   162  160  161 1   
   163  160  163 1   
   164  160  169 1   
   165  161  162 2   
   166  161  174 1   
   167  163  164 1   
   168  163  170 1   
   169  163  171 1   
   170  164  165 1   
   171  164  172 1   
   172  164  173 1   
   173  165  166 1   
   174  165  167 1   
   175  174  175 1   
   176  174  179 1   
   177  175  176 1   
   178  175  177 1   
   179  175  178 1   
   180  181  182 1   
   181  181  183 1   
   182  184  185 1   
   183  184  186 1   
   184  187  188 1   
   185  187  189 1   
   186  190  191 1   
   187  190  192 1   
@<TRIPOS>SUBSTRUCTURE
     1 MOL         1 TEMP              0 ****  ****    0 ROOT
