@<TRIPOS>MOLECULE
MOL
  189   185     1     0     0
SMALL
resp


@<TRIPOS>ATOM
      1 C1          4.9590    4.9080   -2.0970 c3        1 MOL     -0.317528
      2 C2          5.6080    3.7890   -1.3000 c         1 MOL      0.859956
      3 O1          4.9450    3.1050   -0.4760 o         1 MOL     -0.744046
      4 H1          4.8070    4.5800   -3.1260 hc        1 MOL      0.081149
      5 H2          3.9970    5.1610   -1.6510 hc        1 MOL      0.081149
      6 H3          5.6060    5.7840   -2.0880 hc        1 MOL      0.081149
      7 N1          6.8770    3.4190   -1.6150 n         1 MOL     -0.737964
      8 C3          7.4930    2.2150   -1.1710 c3        1 MOL      0.206727
      9 C4          6.5770    0.9700   -1.2170 c         1 MOL      0.335381
     10 O2          6.1510    0.5120   -0.1530 o         1 MOL     -0.455919
     11 C5          8.2620    2.4030    0.1650 c3        1 MOL     -0.031407
     12 C6          7.5990    3.2080    1.2480 c         1 MOL      0.788219
     13 O3          6.5450    2.7760    1.8630 o         1 MOL     -0.756437
     14 O4          8.0930    4.3030    1.5650 o         1 MOL     -0.756437
     15 H4          7.4610    3.9450   -2.2490 hn        1 MOL      0.351576
     16 H5          8.2850    2.0550   -1.9050 h1        1 MOL      0.016300
     17 H6          9.2240    2.8850    0.0130 hc        1 MOL     -0.007883
     18 H7          8.4210    1.4090    0.5930 hc        1 MOL     -0.007883
     19 N2          6.2450    0.6110   -2.4440 n         1 MOL     -0.439978
     20 C7          5.4370   -0.6170   -2.8040 c3        1 MOL      0.051154
     21 C8          6.0120   -1.9590   -2.3270 c         1 MOL      0.385360
     22 O5          5.8760   -2.8990   -3.1190 o         1 MOL     -0.540434
     23 C9          3.9410   -0.4150   -2.5010 c3        1 MOL      0.105883
     24 C10         3.0320   -1.5220   -3.0760 c3        1 MOL      0.032868
     25 C11         3.3910    0.9250   -2.9160 c3        1 MOL     -0.051142
     26 C12         2.9500   -1.6740   -4.6580 c3        1 MOL     -0.462790
     27 H8          6.8410    1.0040   -3.1720 hn        1 MOL      0.296329
     28 H9          5.5880   -0.6550   -3.8870 h1        1 MOL      0.058651
     29 H10         3.8580   -0.4520   -1.4220 hc        1 MOL     -0.080816
     30 H11         2.0200   -1.5120   -2.6630 hc        1 MOL      0.064147
     31 H12         3.4170   -2.4190   -2.5830 hc        1 MOL      0.064147
     32 H13         3.6440    1.7420   -2.2400 hc        1 MOL      0.009669
     33 H14         3.7480    1.2570   -3.8870 hc        1 MOL      0.009669
     34 H15         2.3010    0.9110   -2.9640 hc        1 MOL      0.009669
     35 H16         3.8920   -1.7900   -5.1880 hc        1 MOL      0.113071
     36 H17         2.3550   -2.5560   -4.8680 hc        1 MOL      0.113071
     37 H18         2.3430   -0.7950   -4.9250 hc        1 MOL      0.113071
     38 N3          6.5050   -2.0670   -1.0790 n         1 MOL     -0.069399
     39 C13         7.2850   -3.1730   -0.5140 c3        1 MOL      0.011975
     40 C14         6.6100   -4.5950   -0.6850 c         1 MOL      0.600418
     41 O6          7.3090   -5.5700   -0.9980 o         1 MOL     -0.603557
     42 C15         7.5710   -2.8820    0.9640 c3        1 MOL     -0.232612
     43 C16         8.4550   -1.6300    1.0500 c         1 MOL      0.710610
     44 O7          8.1900   -0.8090    1.9570 o         1 MOL     -0.684900
     45 O8          9.3280   -1.3460    0.1460 o         1 MOL     -0.684900
     46 H19         6.3600   -1.2800   -0.4610 hn        1 MOL      0.119957
     47 H20         8.2590   -3.2320   -0.9950 h1        1 MOL      0.025174
     48 H21         8.1000   -3.7670    1.3260 hc        1 MOL      0.057791
     49 H22         6.6270   -2.7520    1.4950 hc        1 MOL      0.057791
     50 N4          5.2980   -4.7920   -0.5840 n         1 MOL     -0.587269
     51 C17         4.2890   -3.8190   -0.0390 c3        1 MOL      0.235263
     52 C18         3.0530   -4.5550    0.4030 c         1 MOL      0.499488
     53 O9          2.6930   -5.6000   -0.0720 o         1 MOL     -0.598661
     54 H23         5.0690   -5.7760   -0.6120 hn        1 MOL      0.306686
     55 H24         4.0020   -3.1170   -0.8180 h1        1 MOL      0.028641
     56 H25         4.6950   -3.2680    0.7990 h1        1 MOL      0.028641
     57 N5          2.3190   -4.2090    1.4520 n         1 MOL     -0.385972
     58 C19         2.4330   -3.0340    2.3090 c3        1 MOL     -0.014381
     59 C20         2.4450   -1.6220    1.6030 c         1 MOL      0.221268
     60 O10         3.5100   -1.1480    1.2340 o         1 MOL     -0.450871
     61 C21         3.6260   -3.2870    3.2610 c3        1 MOL     -0.346659
     62 C22         3.5290   -2.1970    4.3080 c         1 MOL      0.830689
     63 O11         2.4730   -1.8680    4.9130 o         1 MOL     -0.739293
     64 O12         4.6250   -1.6620    4.4710 o         1 MOL     -0.739293
     65 H26         1.4670   -4.7590    1.5040 hn        1 MOL      0.292124
     66 H27         1.5000   -3.0550    2.8540 h1        1 MOL      0.067594
     67 H28         4.6230   -3.2660    2.8100 hc        1 MOL      0.101679
     68 H29         3.6770   -4.2300    3.8090 hc        1 MOL      0.101679
     69 N6          1.3920   -0.9180    1.3010 n         1 MOL     -0.127005
     70 C23        -0.0170   -1.2000    1.6990 c3        1 MOL     -0.017660
     71 C24        -0.7120   -2.3700    0.9690 c         1 MOL      0.555649
     72 O13        -0.1480   -2.9590    0.0350 o         1 MOL     -0.512105
     73 H30         1.5450   -0.0710    0.7850 hn        1 MOL      0.198495
     74 H31        -0.6470   -0.3370    1.4910 h1        1 MOL      0.041846
     75 H32        -0.1260   -1.2560    2.7750 h1        1 MOL      0.041846
     76 N7         -1.9210   -2.7700    1.3980 n         1 MOL     -0.494151
     77 C25        -2.5620   -3.9880    0.8770 c3        1 MOL      0.261065
     78 C26        -3.1350   -3.9310   -0.5420 c         1 MOL      0.278544
     79 O14        -3.9220   -4.7810   -0.9310 o         1 MOL     -0.534377
     80 C27        -3.6240   -4.4110    1.9770 c3        1 MOL     -0.420909
     81 C28        -4.8020   -3.4570    2.3190 c3        1 MOL      0.018261
     82 C29        -6.0270   -3.9850    3.0050 c         1 MOL      0.738769
     83 N8         -5.8320   -4.3060    4.2320 n         1 MOL     -0.833363
     84 O15        -7.1030   -4.0040    2.5040 o         1 MOL     -0.557562
     85 H33        -2.4970   -2.1180    1.8950 hn        1 MOL      0.287740
     86 H34        -1.7720   -4.7340    0.8560 h1        1 MOL      0.097920
     87 H35        -3.0760   -4.6370    2.8930 hc        1 MOL      0.108235
     88 H36        -4.1910   -5.2690    1.6300 hc        1 MOL      0.108235
     89 H37        -5.1250   -3.0300    1.3670 hc        1 MOL      0.000127
     90 H38        -4.5070   -2.5470    2.8460 hc        1 MOL      0.000127
     91 H39        -4.9210   -4.4530    4.6440 hn        1 MOL      0.368435
     92 H40        -6.6030   -4.5950    4.8190 hn        1 MOL      0.368435
     93 N9         -2.8420   -2.9580   -1.3380 n         1 MOL      0.011715
     94 C30        -3.0440   -2.8730   -2.8120 c3        1 MOL     -0.129224
     95 C31        -4.3750   -2.2040   -3.1540 c         1 MOL      0.505307
     96 O16        -4.7140   -2.2430   -4.2870 o         1 MOL     -0.515784
     97 C32        -1.9200   -2.0970   -3.4570 c3        1 MOL      0.075735
     98 C33        -0.5860   -2.9010   -3.5720 c3        1 MOL     -0.115533
     99 C34        -1.4570   -0.8900   -2.6470 c3        1 MOL     -0.115533
    100 H41        -2.3020   -2.2200   -0.9040 hn        1 MOL      0.066198
    101 H42        -3.1290   -3.8720   -3.2150 h1        1 MOL      0.129313
    102 H43        -2.2140   -1.7980   -4.4610 hc        1 MOL      0.038629
    103 H44        -0.8990   -3.7310   -4.2030 hc        1 MOL      0.024776
    104 H45         0.1930   -2.4500   -4.1820 hc        1 MOL      0.024776
    105 H46        -0.3100   -3.3550   -2.6260 hc        1 MOL      0.024776
    106 H47        -0.7550   -0.3760   -3.2950 hc        1 MOL      0.024776
    107 H48        -2.2930   -0.2440   -2.3970 hc        1 MOL      0.024776
    108 H49        -0.9700   -1.1490   -1.7080 hc        1 MOL      0.024776
    109 N10        -5.0120   -1.5780   -2.1900 n         1 MOL     -0.299159
    110 C35        -6.3980   -1.0870   -2.3330 c3        1 MOL     -0.114198
    111 C36        -6.5010    0.4110   -1.9490 c         1 MOL      0.504097
    112 O17        -7.3510    1.1570   -2.4550 o         1 MOL     -0.527814
    113 C37        -7.3720   -2.0010   -1.4410 c3        1 MOL     -0.165996
    114 C38        -7.4760   -3.4250   -1.7790 c         1 MOL      0.673016
    115 N11        -7.2810   -4.2560   -0.7770 n         1 MOL     -0.803411
    116 O18        -7.8730   -3.7420   -2.8740 o         1 MOL     -0.572905
    117 H50        -4.5840   -1.4330   -1.2820 hn        1 MOL      0.253105
    118 H51        -6.7480   -1.2760   -3.3410 h1        1 MOL      0.123799
    119 H52        -8.3730   -1.5830   -1.5280 hc        1 MOL      0.087653
    120 H53        -7.0700   -1.8440   -0.3980 hc        1 MOL      0.087653
    121 H54        -6.9340   -3.9350    0.1240 hn        1 MOL      0.366379
    122 H55        -7.1940   -5.2290   -1.0460 hn        1 MOL      0.366379
    123 N12        -5.6710    0.9060   -1.0200 n         1 MOL     -0.261635
    124 C39        -5.9430    2.1890   -0.3770 c3        1 MOL     -0.045495
    125 C40        -4.6140    2.9130   -0.0380 c         1 MOL      0.537803
    126 O19        -3.6010    2.2290   -0.0090 o         1 MOL     -0.428349
    127 C41        -6.7730    2.0190    0.9750 c3        1 MOL     -0.058904
    128 C42        -7.9410    1.0690    0.9050 ca        1 MOL      0.003397
    129 C43        -9.0940    1.3200    0.1760 ca        1 MOL     -0.120303
    130 C44        -7.8780   -0.0790    1.7440 ca        1 MOL     -0.120303
    131 C45       -10.1700    0.4750    0.2130 ca        1 MOL     -0.260537
    132 C46        -8.9910   -0.9100    1.8710 ca        1 MOL     -0.260537
    133 C47       -10.1330   -0.6430    1.0640 ca        1 MOL      0.298937
    134 O20       -11.0730   -1.6060    1.0260 oh        1 MOL     -0.477149
    135 H56        -4.7620    0.4970   -0.8670 hn        1 MOL      0.134065
    136 H57        -6.3940    2.8560   -1.1090 h1        1 MOL      0.074547
    137 H58        -7.0160    2.9800    1.4350 hc        1 MOL      0.052101
    138 H59        -6.0220    1.6840    1.6810 hc        1 MOL      0.052101
    139 H60        -9.0450    2.2300   -0.4000 ha        1 MOL      0.117870
    140 H61        -7.0210   -0.3050    2.3670 ha        1 MOL      0.117870
    141 H62       -10.9390    0.6370   -0.5220 ha        1 MOL      0.147560
    142 H63        -8.9880   -1.7700    2.5250 ha        1 MOL      0.147560
    143 H64       -11.7860   -1.3900    0.4110 ho        1 MOL      0.357606
    144 N13        -4.6890    4.2140    0.3370 n         1 MOL     -0.600475
    145 C48        -3.6290    5.1610    0.7130 c3        1 MOL      0.150410
    146 C49        -2.3840    5.2580   -0.2290 c         1 MOL      0.200107
    147 O21        -1.8250    6.4170   -0.3340 o         1 MOL     -0.498150
    148 C50        -3.1530    4.9410    2.1990 c3        1 MOL      0.092400
    149 C51        -4.3170    4.9510    3.1980 c3        1 MOL     -0.175841
    150 C52        -3.8240    5.0190    4.7050 c         1 MOL      0.666070
    151 O22        -2.8420    5.7990    4.9080 o         1 MOL     -0.706717
    152 O23        -4.5270    4.5140    5.5460 o         1 MOL     -0.706717
    153 H65        -5.6250    4.5830    0.4100 hn        1 MOL      0.324154
    154 H66        -4.1740    6.1020    0.6480 h1        1 MOL      0.051869
    155 H67        -2.4940    5.7770    2.3980 hc        1 MOL     -0.000983
    156 H68        -2.5700    4.0210    2.1880 hc        1 MOL     -0.000983
    157 H69        -4.9730    4.1200    2.9590 hc        1 MOL      0.016005
    158 H70        -4.9310    5.8510    3.0840 hc        1 MOL      0.016005
    159 N14        -1.8750    4.2570   -0.9190 n         1 MOL      0.004502
    160 C53        -0.6800    4.3680   -1.7910 c3        1 MOL     -0.114094
    161 C54        -1.0740    5.1060   -3.0170 c         1 MOL      0.469785
    162 O24        -0.3290    5.9890   -3.4820 o         1 MOL     -0.541442
    163 C55        -0.0930    2.9620   -2.1160 c3        1 MOL      0.166095
    164 C56         0.1590    1.9410   -1.0600 c3        1 MOL      0.391153
    165 C57         1.2050    2.4570   -0.1060 c         1 MOL      0.568061
    166 O25         1.0470    3.4930    0.5180 o         1 MOL     -0.650242
    167 O26         2.1140    1.6620    0.1770 o         1 MOL     -0.650242
    168 H71        -2.2770    3.3390   -0.7780 hn        1 MOL      0.103981
    169 H72         0.0030    4.9760   -1.2120 h1        1 MOL      0.134923
    170 H73         0.8120    3.1480   -2.6960 hc        1 MOL     -0.088037
    171 H74        -0.8210    2.5290   -2.7900 hc        1 MOL     -0.088037
    172 H75         0.5370    0.9740   -1.4020 hc        1 MOL     -0.159353
    173 H76        -0.7680    1.7300   -0.5350 hc        1 MOL     -0.159353
    174 N15        -2.2990    4.8720   -3.4380 n         1 MOL     -0.214952
    175 C58        -2.9650    5.6110   -4.5690 c3        1 MOL     -0.371778
    176 H77        -2.8050    5.0690   -5.5010 h1        1 MOL      0.137944
    177 H78        -4.0340    5.6890   -4.3730 h1        1 MOL      0.137944
    178 H79        -2.5370    6.6100   -4.6530 h1        1 MOL      0.137944
    179 H80        -2.9050    4.2220   -2.9590 hn        1 MOL      0.206538
    180 Ca1         4.3190    1.5940    1.5330 Ca        1 MOL      1.814133
    181 O27         5.8350    0.0430    2.7700 oh        1 MOL     -0.918746
    182 H81         6.5280   -0.4560    2.3470 ho        1 MOL      0.438888
    183 H82         5.5050   -0.5450    3.4640 ho        1 MOL      0.438888
    184 O28         3.3820    3.8300    2.5490 oh        1 MOL     -0.918746
    185 H83         2.5280    3.9700    2.1390 ho        1 MOL      0.438888
    186 H84         3.5660    4.6430    3.0190 ho        1 MOL      0.438888
    187 O29         2.4800    0.9530    3.3580 oh        1 MOL     -0.918746
    188 H85         2.3820    0.1630    3.8930 ho        1 MOL      0.438888
    189 H86         1.6140    1.3660    3.3800 ho        1 MOL      0.438888
@<TRIPOS>BOND
     1    1    2 1   
     2    1    4 1   
     3    1    5 1   
     4    1    6 1   
     5    2    3 2   
     6    2    7 1   
     7    7    8 1   
     8    7   15 1   
     9    8    9 1   
    10    8   11 1   
    11    8   16 1   
    12    9   10 2   
    13    9   19 1   
    14   11   12 1   
    15   11   17 1   
    16   11   18 1   
    17   12   13 1   
    18   12   14 1   
    19   19   20 1   
    20   19   27 1   
    21   20   21 1   
    22   20   23 1   
    23   20   28 1   
    24   21   22 2   
    25   21   38 1   
    26   23   24 1   
    27   23   25 1   
    28   23   29 1   
    29   24   26 1   
    30   24   30 1   
    31   24   31 1   
    32   25   32 1   
    33   25   33 1   
    34   25   34 1   
    35   26   35 1   
    36   26   36 1   
    37   26   37 1   
    38   38   39 1   
    39   38   46 1   
    40   39   40 1   
    41   39   42 1   
    42   39   47 1   
    43   40   41 2   
    44   40   50 1   
    45   42   43 1   
    46   42   48 1   
    47   42   49 1   
    48   43   44 1   
    49   43   45 1   
    50   50   51 1   
    51   50   54 1   
    52   51   52 1   
    53   51   55 1   
    54   51   56 1   
    55   52   53 2   
    56   52   57 1   
    57   57   58 1   
    58   57   65 1   
    59   58   59 1   
    60   58   61 1   
    61   58   66 1   
    62   59   60 2   
    63   59   69 1   
    64   61   62 1   
    65   61   67 1   
    66   61   68 1   
    67   62   63 1   
    68   62   64 1   
    69   69   70 1   
    70   69   73 1   
    71   70   71 1   
    72   70   74 1   
    73   70   75 1   
    74   71   72 2   
    75   71   76 1   
    76   76   77 1   
    77   76   85 1   
    78   77   78 1   
    79   77   80 1   
    80   77   86 1   
    81   78   79 2   
    82   78   93 1   
    83   80   81 1   
    84   80   87 1   
    85   80   88 1   
    86   81   82 1   
    87   81   89 1   
    88   81   90 1   
    89   82   83 1   
    90   82   84 2   
    91   83   91 1   
    92   83   92 1   
    93   93   94 1   
    94   93  100 1   
    95   94   95 1   
    96   94   97 1   
    97   94  101 1   
    98   95   96 2   
    99   95  109 1   
   100   97   98 1   
   101   97   99 1   
   102   97  102 1   
   103   98  103 1   
   104   98  104 1   
   105   98  105 1   
   106   99  106 1   
   107   99  107 1   
   108   99  108 1   
   109  109  110 1   
   110  109  117 1   
   111  110  111 1   
   112  110  113 1   
   113  110  118 1   
   114  111  112 2   
   115  111  123 1   
   116  113  114 1   
   117  113  119 1   
   118  113  120 1   
   119  114  115 1   
   120  114  116 2   
   121  115  121 1   
   122  115  122 1   
   123  123  124 1   
   124  123  135 1   
   125  124  125 1   
   126  124  127 1   
   127  124  136 1   
   128  125  126 2   
   129  125  144 1   
   130  127  128 1   
   131  127  137 1   
   132  127  138 1   
   133  128  129 ar  
   134  128  130 ar  
   135  129  131 ar  
   136  129  139 1   
   137  130  132 ar  
   138  130  140 1   
   139  131  133 ar  
   140  131  141 1   
   141  132  133 ar  
   142  132  142 1   
   143  133  134 1   
   144  134  143 1   
   145  144  145 1   
   146  144  153 1   
   147  145  146 1   
   148  145  148 1   
   149  145  154 1   
   150  146  147 2   
   151  146  159 1   
   152  148  149 1   
   153  148  155 1   
   154  148  156 1   
   155  149  150 1   
   156  149  157 1   
   157  149  158 1   
   158  150  151 1   
   159  150  152 1   
   160  159  160 1   
   161  159  168 1   
   162  160  161 1   
   163  160  163 1   
   164  160  169 1   
   165  161  162 2   
   166  161  174 1   
   167  163  164 1   
   168  163  170 1   
   169  163  171 1   
   170  164  165 1   
   171  164  172 1   
   172  164  173 1   
   173  165  166 1   
   174  165  167 1   
   175  174  175 1   
   176  174  179 1   
   177  175  176 1   
   178  175  177 1   
   179  175  178 1   
   180  181  182 1   
   181  181  183 1   
   182  184  185 1   
   183  184  186 1   
   184  187  188 1   
   185  187  189 1   
@<TRIPOS>SUBSTRUCTURE
     1 MOL         1 TEMP              0 ****  ****    0 ROOT
