@<TRIPOS>MOLECULE
MOL
  178   175     1     0     0
SMALL
resp


@<TRIPOS>ATOM
      1 C1          2.2380    6.6430   -1.0460 c3        1 MOL     -0.424268
      2 C2          3.5580    6.0430   -0.6680 c         1 MOL      0.829024
      3 O1          3.9860    6.4050    0.4120 o         1 MOL     -0.591026
      4 H1          1.6010    6.7050   -0.1640 hc        1 MOL      0.092667
      5 H2          2.3950    7.6420   -1.4510 hc        1 MOL      0.092667
      6 H3          1.7560    6.0180   -1.7980 hc        1 MOL      0.092667
      7 N1          4.2300    5.2340   -1.5310 n         1 MOL     -0.730966
      8 C3          5.5220    4.5760   -1.2110 c3        1 MOL      0.191494
      9 C4          5.4010    3.6010   -0.0610 c         1 MOL      0.658906
     10 O2          4.3420    2.9860    0.1520 o         1 MOL     -0.596164
     11 C5          6.0960    3.9540   -2.4890 c3        1 MOL     -0.135085
     12 C6          7.5380    3.3950   -2.3250 c         1 MOL      0.658829
     13 O3          8.3650    4.0870   -1.6840 o         1 MOL     -0.701963
     14 O4          7.8960    2.4250   -3.0530 o         1 MOL     -0.701963
     15 H4          3.8250    5.0470   -2.4310 hn        1 MOL      0.342825
     16 H5          6.1940    5.3370   -0.8200 h1        1 MOL      0.018467
     17 H6          5.9230    4.6760   -3.2880 hc        1 MOL      0.012579
     18 H7          5.5560    3.0680   -2.8250 hc        1 MOL      0.012579
     19 N2          6.4220    3.4540    0.8050 n         1 MOL     -0.668005
     20 C7          6.3560    2.5940    1.9880 c3        1 MOL      0.595267
     21 C8          5.1320    2.7270    2.8760 c         1 MOL      0.196403
     22 O5          4.5770    3.7830    3.1020 o         1 MOL     -0.488359
     23 C9          7.6670    2.7790    2.7970 c3        1 MOL     -0.519170
     24 H8          7.2380    4.0310    0.6610 hn        1 MOL      0.315364
     25 H9          6.4180    1.5730    1.6060 h1        1 MOL     -0.016147
     26 H10         7.7050    3.7820    3.2080 hc        1 MOL      0.124109
     27 H11         7.6320    2.1180    3.6640 hc        1 MOL      0.124109
     28 H12         8.4760    2.4790    2.1350 hc        1 MOL      0.124109
     29 N3          4.5620    1.6060    3.3500 n         1 MOL     -0.018667
     30 C10         5.0150    0.2990    3.4960 c3        1 MOL     -0.123727
     31 C11         5.3550   -0.4080    2.1650 c         1 MOL      0.514430
     32 O6          4.6370   -0.2920    1.1610 o         1 MOL     -0.524454
     33 C12         3.9190   -0.5770    4.1700 c3        1 MOL     -0.155219
     34 C13         2.4940   -0.5210    3.6400 c         1 MOL      0.637020
     35 O7          1.8310    0.4990    3.8160 o         1 MOL     -0.672079
     36 O8          2.0350   -1.4520    2.9030 o         1 MOL     -0.672079
     37 H13         3.8050    1.7520    3.9980 hn        1 MOL      0.187938
     38 H14         5.9160    0.3390    4.0980 h1        1 MOL      0.003820
     39 H15         3.8980   -0.1680    5.1850 hc        1 MOL      0.053806
     40 H16         4.1930   -1.6280    4.2570 hc        1 MOL      0.053806
     41 N4          6.3590   -1.2510    2.2830 n         1 MOL     -0.407405
     42 C14         6.8870   -1.9770    1.1250 c3        1 MOL     -0.005715
     43 C15         7.4810   -1.0380    0.0530 c         1 MOL      0.574482
     44 O9          7.8780    0.0780    0.3550 o         1 MOL     -0.509302
     45 H17         6.9070   -1.2940    3.1350 hn        1 MOL      0.289736
     46 H18         6.1540   -2.6630    0.6880 h1        1 MOL      0.064695
     47 H19         7.7430   -2.5820    1.4270 h1        1 MOL      0.064695
     48 N5          7.6590   -1.5580   -1.1760 n         1 MOL     -0.461843
     49 C16         7.4800   -2.9190   -1.7110 c3        1 MOL     -0.046440
     50 C17         6.1340   -3.1980   -2.3950 c         1 MOL      0.612262
     51 O10         5.7200   -4.3550   -2.6340 o         1 MOL     -0.576213
     52 C18         8.6810   -3.2210   -2.6540 c3        1 MOL     -0.304768
     53 C19        10.0410   -2.9840   -1.9060 c         1 MOL      0.708858
     54 N6         11.1530   -3.0390   -2.5970 n         1 MOL     -0.779557
     55 O11        10.0780   -2.7550   -0.7160 o         1 MOL     -0.529512
     56 H20         8.1030   -0.9120   -1.8150 hn        1 MOL      0.315879
     57 H21         7.4830   -3.6260   -0.8890 h1        1 MOL      0.099341
     58 H22         8.6300   -2.5010   -3.4640 hc        1 MOL      0.093277
     59 H23         8.5800   -4.1850   -3.1580 hc        1 MOL      0.093277
     60 H24        11.1500   -3.5020   -3.4950 hn        1 MOL      0.353914
     61 H25        12.0140   -2.8310   -2.1000 hn        1 MOL      0.353914
     62 N7          5.3470   -2.1660   -2.6670 n         1 MOL     -0.276421
     63 C20         4.1420   -2.1630   -3.4970 c3        1 MOL     -0.381323
     64 C21         2.8300   -2.7350   -2.9110 c         1 MOL      0.651296
     65 O12         1.7920   -2.6570   -3.5450 o         1 MOL     -0.599065
     66 H26         5.6820   -1.2380   -2.4910 hn        1 MOL      0.245432
     67 H27         4.4310   -2.6920   -4.4110 h1        1 MOL      0.164717
     68 H28         3.9660   -1.1120   -3.7250 h1        1 MOL      0.164717
     69 N8          2.8350   -3.1810   -1.6450 n         1 MOL     -0.191521
     70 C22         1.6990   -3.6750   -0.9070 c3        1 MOL     -0.371259
     71 C23         0.5680   -2.6610   -0.7430 c         1 MOL      0.855260
     72 O13         0.7070   -1.5130   -0.3670 o         1 MOL     -0.683014
     73 C24         2.1710   -3.9800    0.5420 c3        1 MOL      0.324177
     74 C25         2.7430   -5.4100    0.6100 c3        1 MOL     -0.132828
     75 O14         3.2880   -3.2320    1.0980 oh        1 MOL     -0.473953
     76 H29         3.7170   -3.1250   -1.1540 hn        1 MOL      0.191494
     77 H30         1.3520   -4.5670   -1.4180 h1        1 MOL      0.143795
     78 H31         1.3540   -3.9850    1.2670 h1        1 MOL      0.018506
     79 H32         2.8520   -2.5180    1.5670 ho        1 MOL      0.280701
     80 H33         2.0270   -6.1330    0.2050 hc        1 MOL      0.022715
     81 H34         3.6210   -5.6330    0.0020 hc        1 MOL      0.022715
     82 H35         2.9580   -5.7400    1.6290 hc        1 MOL      0.022715
     83 N9         -0.6440   -2.9900   -1.3400 n         1 MOL     -0.474635
     84 C26        -1.9360   -2.2880   -1.1030 c3        1 MOL     -0.038983
     85 C27        -2.7250   -2.9520    0.0460 c         1 MOL      0.208441
     86 O15        -2.7960   -4.1940    0.1130 o         1 MOL     -0.498885
     87 C28        -2.7330   -2.3120   -2.4750 c3        1 MOL      0.342903
     88 C29        -4.2170   -1.8930   -2.4110 c3        1 MOL      0.008625
     89 C30        -2.1000   -1.3980   -3.5110 c3        1 MOL     -0.334396
     90 C31        -4.9780   -1.7950   -3.7040 c3        1 MOL     -0.086731
     91 H36        -0.7700   -3.8870   -1.7940 hn        1 MOL      0.244333
     92 H37        -1.5820   -1.2860   -0.8270 h1        1 MOL      0.108510
     93 H38        -2.6810   -3.3170   -2.8980 hc        1 MOL     -0.022878
     94 H39        -4.2030   -0.9200   -1.9270 hc        1 MOL     -0.009361
     95 H40        -4.6090   -2.5730   -1.6460 hc        1 MOL     -0.009361
     96 H41        -1.0090   -1.4030   -3.6090 hc        1 MOL      0.076117
     97 H42        -2.4310   -1.6600   -4.5150 hc        1 MOL      0.076117
     98 H43        -2.2940   -0.3420   -3.3280 hc        1 MOL      0.076117
     99 H44        -4.8660   -0.8340   -4.2030 hc        1 MOL     -0.001865
    100 H45        -4.5830   -2.5980   -4.3170 hc        1 MOL     -0.001865
    101 H46        -6.0310   -1.9540   -3.4690 hc        1 MOL     -0.001865
    102 N10        -3.4810   -2.2080    0.7930 n         1 MOL     -0.253393
    103 C32        -4.2350   -2.6080    2.0340 c3        1 MOL      0.162400
    104 C33        -5.6560   -2.0410    2.1550 c         1 MOL      0.353458
    105 O16        -6.4370   -2.2790    3.1000 o         1 MOL     -0.544327
    106 C34        -3.4120   -2.1990    3.2750 c3        1 MOL      0.003624
    107 C35        -2.0170   -2.7960    3.3000 c         1 MOL      0.673812
    108 O17        -1.7320   -3.6180    4.1970 o         1 MOL     -0.674311
    109 O18        -1.1340   -2.3570    2.4370 o         1 MOL     -0.674311
    110 H47        -3.6030   -1.2460    0.5110 hn        1 MOL      0.221477
    111 H48        -4.3140   -3.6960    2.0410 h1        1 MOL      0.068119
    112 H49        -3.9510   -2.5910    4.1450 hc        1 MOL     -0.034103
    113 H50        -3.3190   -1.1190    3.2860 hc        1 MOL     -0.034103
    114 N11        -6.0470   -1.2110    1.1690 n         1 MOL     -0.365863
    115 C36        -7.4450   -0.7750    0.9170 c3        1 MOL      0.426002
    116 C37        -7.5070    0.6970    0.3750 c         1 MOL      0.255062
    117 O19        -8.0250    0.9200   -0.7170 o         1 MOL     -0.475686
    118 C38        -8.1350   -1.7810   -0.0210 c3        1 MOL     -0.498810
    119 C39        -9.6440   -1.6520   -0.2460 ca        1 MOL      0.220457
    120 C40       -10.4540   -0.7310    0.4610 ca        1 MOL     -0.183955
    121 C41       -10.2160   -2.5830   -1.1410 ca        1 MOL     -0.183955
    122 C42       -11.8080   -0.7870    0.2300 ca        1 MOL     -0.077849
    123 C43       -11.5790   -2.5750   -1.4200 ca        1 MOL     -0.077849
    124 C44       -12.3800   -1.7540   -0.7020 ca        1 MOL     -0.193203
    125 H51        -5.3060   -0.9200    0.5400 hn        1 MOL      0.183876
    126 H52        -8.0520   -0.8080    1.8200 h1        1 MOL      0.025840
    127 H53        -7.9720   -2.7870    0.3910 hc        1 MOL      0.154264
    128 H54        -7.6630   -1.7760   -1.0000 hc        1 MOL      0.154264
    129 H55       -10.0010   -0.0740    1.1830 ha        1 MOL      0.116808
    130 H56        -9.5520   -3.2650   -1.6530 ha        1 MOL      0.116808
    131 H57       -12.4110   -0.1600    0.8680 ha        1 MOL      0.093649
    132 H58       -12.0400   -3.3380   -2.0330 ha        1 MOL      0.093649
    133 H59       -13.4520   -1.8250   -0.7970 ha        1 MOL      0.108467
    134 N12        -7.0660    1.6900    1.1920 n         1 MOL     -0.109283
    135 C45        -6.9200    3.1410    0.8170 c3        1 MOL      0.024357
    136 C46        -6.3480    3.4460   -0.5510 c         1 MOL      0.343708
    137 O20        -6.7380    4.4330   -1.1190 o         1 MOL     -0.497322
    138 C47        -6.0920    3.7940    1.9940 c3        1 MOL     -0.057298
    139 C48        -6.5230    2.8580    3.1790 c3        1 MOL     -0.021802
    140 C49        -6.6110    1.4700    2.6020 c3        1 MOL     -0.014048
    141 H60        -7.9050    3.6000    0.7660 h1        1 MOL      0.060253
    142 H61        -5.0310    3.6020    1.8550 hc        1 MOL      0.039238
    143 H62        -6.3110    4.8580    2.0790 hc        1 MOL      0.039238
    144 H63        -5.8220    2.8910    4.0120 hc        1 MOL      0.013105
    145 H64        -7.5040    3.0950    3.5820 hc        1 MOL      0.013105
    146 H65        -5.6680    0.9290    2.7070 h1        1 MOL      0.048014
    147 H66        -7.3310    0.7830    3.0580 h1        1 MOL      0.048014
    148 N13        -5.4450    2.6830   -1.1250 n         1 MOL      0.039134
    149 C50        -4.7970    3.1330   -2.3030 c3        1 MOL     -0.505711
    150 C51        -5.7330    3.1690   -3.5420 c         1 MOL      0.603040
    151 O21        -5.8630    4.1240   -4.2580 o         1 MOL     -0.546718
    152 C52        -3.5100    2.2900   -2.6140 c3        1 MOL      0.353530
    153 C53        -2.4860    2.0430   -1.3600 c3        1 MOL     -0.433244
    154 C54        -2.8440    1.0020   -0.2750 c         1 MOL      0.811743
    155 O22        -1.9350    0.5090    0.4160 o         1 MOL     -0.720975
    156 O23        -4.0220    0.6820    0.0240 o         1 MOL     -0.720975
    157 H67        -5.1210    1.7950   -0.7920 hn        1 MOL      0.200269
    158 H68        -4.4090    4.1350   -2.0980 h1        1 MOL      0.147425
    159 H69        -3.0200    2.6490   -3.5090 hc        1 MOL     -0.049118
    160 H70        -3.9480    1.3370   -2.9050 hc        1 MOL     -0.049118
    161 H71        -2.3650    2.9920   -0.8180 hc        1 MOL      0.096579
    162 H72        -1.5180    1.7660   -1.7650 hc        1 MOL      0.096579
    163 N14        -6.4660    2.1040   -3.7930 n         1 MOL     -0.252494
    164 C55        -7.6770    1.9910   -4.5860 c3        1 MOL     -0.296796
    165 H73        -8.4940    2.5010   -4.0740 h1        1 MOL      0.120610
    166 H74        -7.5170    2.4500   -5.5610 h1        1 MOL      0.120610
    167 H75        -7.9310    0.9400   -4.7160 h1        1 MOL      0.120610
    168 H76        -6.2030    1.2840   -3.2650 hn        1 MOL      0.246318
    169 Ca1         0.0200   -0.0970    1.8580 Ca        1 MOL      1.692797
    170 O24         2.3190    0.9820    0.8420 oh        1 MOL     -0.865368
    171 H77         3.1020    0.4550    0.9660 ho        1 MOL      0.429350
    172 H78         2.6390    1.8600    0.6430 ho        1 MOL      0.429350
    173 O25         0.1020    2.6050    2.2220 oh        1 MOL     -0.865368
    174 H79        -0.6730    3.0640    1.8970 ho        1 MOL      0.429350
    175 H80         0.6950    3.3040    2.5170 ho        1 MOL      0.429350
    176 O26        -1.3390    0.3540    4.0530 oh        1 MOL     -0.865368
    177 H81        -1.7470    1.2110    4.1620 ho        1 MOL      0.429350
    178 H82        -1.6300   -0.1450    4.8200 ho        1 MOL      0.429350
@<TRIPOS>BOND
     1    1    2 1   
     2    1    4 1   
     3    1    5 1   
     4    1    6 1   
     5    2    3 2   
     6    2    7 1   
     7    7    8 1   
     8    7   15 1   
     9    8    9 1   
    10    8   11 1   
    11    8   16 1   
    12    9   10 2   
    13    9   19 1   
    14   11   12 1   
    15   11   17 1   
    16   11   18 1   
    17   12   13 1   
    18   12   14 1   
    19   19   20 1   
    20   19   24 1   
    21   20   21 1   
    22   20   23 1   
    23   20   25 1   
    24   21   22 2   
    25   21   29 1   
    26   23   26 1   
    27   23   27 1   
    28   23   28 1   
    29   29   30 1   
    30   29   37 1   
    31   30   31 1   
    32   30   33 1   
    33   30   38 1   
    34   31   32 2   
    35   31   41 1   
    36   33   34 1   
    37   33   39 1   
    38   33   40 1   
    39   34   35 1   
    40   34   36 1   
    41   41   42 1   
    42   41   45 1   
    43   42   43 1   
    44   42   46 1   
    45   42   47 1   
    46   43   44 2   
    47   43   48 1   
    48   48   49 1   
    49   48   56 1   
    50   49   50 1   
    51   49   52 1   
    52   49   57 1   
    53   50   51 2   
    54   50   62 1   
    55   52   53 1   
    56   52   58 1   
    57   52   59 1   
    58   53   54 1   
    59   53   55 2   
    60   54   60 1   
    61   54   61 1   
    62   62   63 1   
    63   62   66 1   
    64   63   64 1   
    65   63   67 1   
    66   63   68 1   
    67   64   65 2   
    68   64   69 1   
    69   69   70 1   
    70   69   76 1   
    71   70   71 1   
    72   70   73 1   
    73   70   77 1   
    74   71   72 2   
    75   71   83 1   
    76   73   74 1   
    77   73   75 1   
    78   73   78 1   
    79   74   80 1   
    80   74   81 1   
    81   74   82 1   
    82   75   79 1   
    83   83   84 1   
    84   83   91 1   
    85   84   85 1   
    86   84   87 1   
    87   84   92 1   
    88   85   86 2   
    89   85  102 1   
    90   87   88 1   
    91   87   89 1   
    92   87   93 1   
    93   88   90 1   
    94   88   94 1   
    95   88   95 1   
    96   89   96 1   
    97   89   97 1   
    98   89   98 1   
    99   90   99 1   
   100   90  100 1   
   101   90  101 1   
   102  102  103 1   
   103  102  110 1   
   104  103  104 1   
   105  103  106 1   
   106  103  111 1   
   107  104  105 2   
   108  104  114 1   
   109  106  107 1   
   110  106  112 1   
   111  106  113 1   
   112  107  108 1   
   113  107  109 1   
   114  114  115 1   
   115  114  125 1   
   116  115  116 1   
   117  115  118 1   
   118  115  126 1   
   119  116  117 2   
   120  116  134 1   
   121  118  119 1   
   122  118  127 1   
   123  118  128 1   
   124  119  120 ar  
   125  119  121 ar  
   126  120  122 ar  
   127  120  129 1   
   128  121  123 ar  
   129  121  130 1   
   130  122  124 ar  
   131  122  131 1   
   132  123  124 ar  
   133  123  132 1   
   134  124  133 1   
   135  134  135 1   
   136  134  140 1   
   137  135  136 1   
   138  135  138 1   
   139  135  141 1   
   140  136  137 2   
   141  136  148 1   
   142  138  139 1   
   143  138  142 1   
   144  138  143 1   
   145  139  140 1   
   146  139  144 1   
   147  139  145 1   
   148  140  146 1   
   149  140  147 1   
   150  148  149 1   
   151  148  157 1   
   152  149  150 1   
   153  149  152 1   
   154  149  158 1   
   155  150  151 2   
   156  150  163 1   
   157  152  153 1   
   158  152  159 1   
   159  152  160 1   
   160  153  154 1   
   161  153  161 1   
   162  153  162 1   
   163  154  155 1   
   164  154  156 1   
   165  163  164 1   
   166  163  168 1   
   167  164  165 1   
   168  164  166 1   
   169  164  167 1   
   170  170  171 1   
   171  170  172 1   
   172  173  174 1   
   173  173  175 1   
   174  176  177 1   
   175  176  178 1   
@<TRIPOS>SUBSTRUCTURE
     1 MOL         1 TEMP              0 ****  ****    0 ROOT
