@<TRIPOS>MOLECULE
MOL
  184   179     1     0     0
SMALL
resp


@<TRIPOS>ATOM
      1 C1         -2.4680   -1.8590   -4.5960 c3        1 MOL     -0.441300
      2 C2         -3.8550   -1.4160   -4.0830 c         1 MOL      0.597778
      3 O1         -4.1350   -0.3250   -3.4990 o         1 MOL     -0.585146
      4 H1         -2.4270   -2.9470   -4.6410 hc        1 MOL      0.120350
      5 H2         -2.3000   -1.4490   -5.5920 hc        1 MOL      0.120350
      6 H3         -1.6960   -1.4950   -3.9190 hc        1 MOL      0.120350
      7 N1         -4.8760   -2.2320   -4.3160 n         1 MOL     -0.463084
      8 C3         -6.1980   -2.2550   -3.6730 c3        1 MOL      0.285929
      9 C4         -6.1690   -2.6360   -2.1760 c         1 MOL      0.509892
     10 O2         -5.1630   -2.9050   -1.5670 o         1 MOL     -0.525558
     11 C5         -7.1660   -3.1230   -4.4650 c3        1 MOL     -0.318197
     12 C6         -8.6620   -2.5760   -4.2940 c         1 MOL      0.765841
     13 O3         -9.5790   -3.3390   -4.6220 o         1 MOL     -0.726818
     14 O4         -8.9160   -1.4560   -3.7840 o         1 MOL     -0.726818
     15 H4         -4.6370   -3.0600   -4.8500 hn        1 MOL      0.247724
     16 H5         -6.5740   -1.2270   -3.7360 h1        1 MOL      0.024107
     17 H6         -7.1850   -4.1500   -4.0960 hc        1 MOL      0.034974
     18 H7         -6.9030   -3.0910   -5.5280 hc        1 MOL      0.034974
     19 N2         -7.2930   -2.6150   -1.4100 n         1 MOL     -0.463423
     20 C7         -7.4640   -3.0500   -0.0160 c3        1 MOL      0.183301
     21 C8         -6.9420   -1.9100    0.8690 c         1 MOL      0.640720
     22 O5         -6.8810   -0.7110    0.5230 o         1 MOL     -0.571386
     23 C9         -9.0150   -3.3870    0.1510 c3        1 MOL     -0.364391
     24 H8         -8.1820   -2.3560   -1.7950 hn        1 MOL      0.245236
     25 H9         -6.9020   -3.9870    0.0230 h1        1 MOL      0.078480
     26 H10        -9.6220   -2.6010   -0.3030 hc        1 MOL      0.100082
     27 H11        -9.1850   -4.3940   -0.2360 hc        1 MOL      0.100082
     28 H12        -9.2620   -3.3470    1.2060 hc        1 MOL      0.100082
     29 N3         -6.3850   -2.2520    2.0320 n         1 MOL     -0.595230
     30 C10        -5.3790   -1.4420    2.7640 c3        1 MOL      0.088890
     31 C11        -5.9910   -0.3790    3.7730 c         1 MOL      0.504758
     32 O6         -6.9400   -0.7190    4.5040 o         1 MOL     -0.529893
     33 C12        -4.4080   -2.3860    3.4670 c3        1 MOL     -0.171370
     34 C13        -4.0820   -3.6490    2.6450 c         1 MOL      0.577330
     35 O7         -4.5980   -4.7100    3.0000 o         1 MOL     -0.644415
     36 O8         -3.4130   -3.4530    1.5870 o         1 MOL     -0.644415
     37 H13        -6.5000   -3.2050    2.3480 hn        1 MOL      0.337974
     38 H14        -4.9270   -0.9010    1.9390 h1        1 MOL      0.089180
     39 H15        -4.8330   -2.7320    4.4100 hc        1 MOL      0.021156
     40 H16        -3.5420   -1.7480    3.6460 hc        1 MOL      0.021156
     41 N4         -5.3010    0.7300    3.9010 n         1 MOL     -0.284729
     42 C14        -5.5380    1.8450    4.8330 c3        1 MOL     -0.169112
     43 C15        -4.8410    3.1420    4.5530 c         1 MOL      0.549046
     44 O9         -5.1810    4.1330    5.2430 o         1 MOL     -0.516932
     45 H17        -4.5930    0.7800    3.1840 hn        1 MOL      0.160319
     46 H18        -5.2720    1.5320    5.8400 h1        1 MOL      0.117394
     47 H19        -6.6150    1.9740    4.8980 h1        1 MOL      0.117394
     48 N5         -3.8060    3.1550    3.7120 n         1 MOL     -0.402198
     49 C16        -3.1900    4.4600    3.4050 c3        1 MOL      0.039676
     50 C17        -2.7520    4.5600    1.8910 c         1 MOL      0.584772
     51 O10        -2.5240    3.5940    1.1500 o         1 MOL     -0.486363
     52 C18        -1.9490    4.6330    4.3220 c3        1 MOL     -0.252039
     53 C19        -2.2810    4.5650    5.8100 c         1 MOL      0.688235
     54 N6         -2.4100    3.3790    6.3810 n         1 MOL     -0.833467
     55 O11        -2.3790    5.5930    6.4430 o         1 MOL     -0.551958
     56 H20        -3.6970    2.5270    2.9350 hn        1 MOL      0.261620
     57 H21        -3.8830    5.2430    3.6930 h1        1 MOL      0.067672
     58 H22        -1.5290    5.5900    4.0190 hc        1 MOL      0.076878
     59 H23        -1.2600    3.8320    4.0730 hc        1 MOL      0.076878
     60 H24        -2.2200    2.5010    5.9240 hn        1 MOL      0.379251
     61 H25        -2.8110    3.3950    7.3070 hn        1 MOL      0.379251
     62 N7         -2.6190    5.7830    1.4230 n         1 MOL     -0.560856
     63 C20        -2.3180    6.0770    0.0210 c3        1 MOL     -0.001210
     64 C21        -0.8570    6.1360   -0.3480 c         1 MOL      0.548813
     65 O12         0.0360    5.5910    0.3570 o         1 MOL     -0.493195
     66 H26        -2.8380    6.6100    1.9430 hn        1 MOL      0.346665
     67 H27        -2.7620    7.0590   -0.1350 h1        1 MOL      0.072706
     68 H28        -2.7990    5.4120   -0.6950 h1        1 MOL      0.072706
     69 N8         -0.6830    6.7870   -1.4380 n         1 MOL     -0.295428
     70 C22         0.6130    7.2200   -1.8950 c3        1 MOL     -0.452057
     71 C23         1.6300    6.2610   -2.4060 c         1 MOL      0.439915
     72 O13         2.8220    6.6310   -2.4130 o         1 MOL     -0.542348
     73 C24         0.5180    8.3890   -2.8670 c3        1 MOL      0.553732
     74 C25        -0.1860    8.0740   -4.2210 c3        1 MOL     -0.275023
     75 O14        -0.1730    9.5110   -2.3390 oh        1 MOL     -0.648915
     76 H29        -1.5510    7.1980   -1.7280 hn        1 MOL      0.200953
     77 H30         1.0150    7.5380   -0.9290 h1        1 MOL      0.196117
     78 H31         1.5070    8.7100   -3.2000 h1        1 MOL      0.030743
     79 H32        -1.0930    9.2310   -2.3300 ho        1 MOL      0.386492
     80 H33         0.5150    7.8050   -5.0130 hc        1 MOL      0.056814
     81 H34        -1.0370    7.3910   -4.1810 hc        1 MOL      0.056814
     82 H35        -0.6140    9.0170   -4.5540 hc        1 MOL      0.056814
     83 N9          1.2500    5.0010   -2.5990 n         1 MOL     -0.004965
     84 C26         2.2110    3.9000   -2.8550 c3        1 MOL     -0.097740
     85 C27         1.9250    2.6760   -1.9570 c         1 MOL      0.422154
     86 O15         0.8270    2.5610   -1.3940 o         1 MOL     -0.435593
     87 C28         2.2480    3.5720   -4.3050 c3        1 MOL      0.127421
     88 C29         0.9890    2.8740   -4.8610 c3        1 MOL     -0.107525
     89 C30         2.6730    4.7900   -5.1850 c3        1 MOL     -0.240316
     90 C31        -0.4090    3.6250   -4.8370 c3        1 MOL     -0.077539
     91 H36         0.2770    4.7890   -2.4460 hn        1 MOL      0.166443
     92 H37         3.2240    4.1860   -2.5750 h1        1 MOL      0.087714
     93 H38         3.0840    2.8770   -4.4610 hc        1 MOL     -0.003714
     94 H39         0.9100    1.9210   -4.3470 hc        1 MOL      0.047167
     95 H40         1.2030    2.5570   -5.8830 hc        1 MOL      0.047167
     96 H41         2.7590    4.4060   -6.2000 hc        1 MOL      0.055246
     97 H42         1.9250    5.5760   -5.2720 hc        1 MOL      0.055246
     98 H43         3.5790    5.2750   -4.8280 hc        1 MOL      0.055246
     99 H44        -1.1190    3.2220   -5.5760 hc        1 MOL      0.030590
    100 H45        -0.9160    3.6450   -3.8750 hc        1 MOL      0.030590
    101 H46        -0.3560    4.6990   -4.9760 hc        1 MOL      0.030590
    102 N10         2.8490    1.6820   -1.7350 n         1 MOL     -0.493582
    103 C32         2.5260    0.5560   -0.8870 c3        1 MOL      0.040444
    104 C33         3.7950    0.1000   -0.1770 c         1 MOL      0.662544
    105 O16         3.8170   -1.0260    0.2720 o         1 MOL     -0.482288
    106 C34         1.7160   -0.5270   -1.7450 c3        1 MOL     -0.340077
    107 C35         0.9920   -1.5230   -0.8880 c         1 MOL      0.772879
    108 O17         0.5990   -2.5950   -1.4050 o         1 MOL     -0.735779
    109 O18         0.7330   -1.3330    0.3370 o         1 MOL     -0.735779
    110 H47         3.7500    1.7620   -2.1870 hn        1 MOL      0.301670
    111 H48         1.8420    0.8280   -0.0770 h1        1 MOL      0.096585
    112 H49         2.4190   -1.0440   -2.4070 hc        1 MOL      0.131459
    113 H50         0.9830    0.0030   -2.3540 hc        1 MOL      0.131459
    114 N11         4.8300    0.9200    0.0550 n         1 MOL     -0.604715
    115 C36         5.9670    0.4740    0.8980 c3        1 MOL      0.276546
    116 C37         6.7130   -0.7480    0.3460 c         1 MOL      0.274259
    117 O19         7.0310   -0.7410   -0.8490 o         1 MOL     -0.473729
    118 C38         6.9240    1.6220    1.0970 c3        1 MOL     -0.178156
    119 C39         8.0440    1.2070    1.9440 ca        1 MOL      0.162885
    120 C40         7.7770    1.2830    3.3480 ca        1 MOL     -0.243967
    121 C41         9.2010    0.6080    1.4800 ca        1 MOL     -0.243967
    122 C42         8.7810    0.9350    4.2470 ca        1 MOL     -0.046826
    123 C43        10.2210    0.2850    2.3880 ca        1 MOL     -0.046826
    124 C44        10.0500    0.5340    3.7240 ca        1 MOL     -0.179628
    125 H51         4.9090    1.7340   -0.5370 hn        1 MOL      0.283617
    126 H52         5.5710    0.2500    1.8820 h1        1 MOL      0.006746
    127 H53         6.5010    2.5550    1.4520 hc        1 MOL      0.074776
    128 H54         7.3080    1.9440    0.1300 hc        1 MOL      0.074776
    129 H55         6.8350    1.7330    3.6090 ha        1 MOL      0.134576
    130 H56         9.3460    0.2710    0.4570 ha        1 MOL      0.134576
    131 H57         8.6480    1.0500    5.3180 ha        1 MOL      0.100676
    132 H58        11.1380   -0.2210    2.0970 ha        1 MOL      0.100676
    133 H59        10.8020    0.1800    4.4090 ha        1 MOL      0.108227
    134 N12         7.0390   -1.7750    1.1980 n         1 MOL      0.106999
    135 C45         7.7680   -2.9630    0.7010 c3        1 MOL     -0.104010
    136 C46         6.8640   -3.8700   -0.1940 c         1 MOL      0.430063
    137 O20         7.3760   -4.8360   -0.7160 o         1 MOL     -0.541332
    138 C47         8.1620   -3.6670    2.0140 c3        1 MOL     -0.025603
    139 C48         6.9410   -3.4170    2.8770 c3        1 MOL      0.030314
    140 C49         6.6530   -2.0140    2.5340 c3        1 MOL     -0.146185
    141 H60         8.6550   -2.6630    0.1300 h1        1 MOL      0.088860
    142 H61         8.2850   -4.7420    1.9730 hc        1 MOL      0.023739
    143 H62         9.0700   -3.1930    2.4110 hc        1 MOL      0.023739
    144 H63         6.1290   -4.0780    2.5570 hc        1 MOL      0.022529
    145 H64         7.2060   -3.4770    3.9270 hc        1 MOL      0.022529
    146 H65         5.5860   -1.9410    2.7560 h1        1 MOL      0.060825
    147 H66         7.1860   -1.3780    3.2410 h1        1 MOL      0.060825
    148 N13         5.5450   -3.6090   -0.4600 n         1 MOL     -0.035269
    149 C50         4.8850   -4.3820   -1.5080 c3        1 MOL     -0.064453
    150 C51         4.9420   -3.7250   -2.9340 c         1 MOL      0.272152
    151 O21         4.4500   -4.2120   -3.9350 o         1 MOL     -0.479202
    152 C52         3.3750   -4.5260   -1.0750 c3        1 MOL      0.270319
    153 C53         3.1580   -5.4570    0.1310 c3        1 MOL     -0.612961
    154 C54         1.6630   -5.4540    0.4470 c         1 MOL      0.907549
    155 O22         1.2270   -4.5650    1.2380 o         1 MOL     -0.737510
    156 O23         0.8540   -6.2830   -0.0430 o         1 MOL     -0.737510
    157 H67         5.0460   -2.7450   -0.3090 hn        1 MOL      0.046559
    158 H68         5.1560   -5.4280   -1.6420 h1        1 MOL      0.110639
    159 H69         2.8510   -4.9780   -1.9160 hc        1 MOL     -0.005815
    160 H70         2.9260   -3.5600   -0.8360 hc        1 MOL     -0.005815
    161 H71         3.8650   -5.3580    0.9570 hc        1 MOL      0.107014
    162 H72         3.4200   -6.4500   -0.2220 hc        1 MOL      0.107014
    163 N14         5.5120   -2.4750   -2.9430 n         1 MOL     -0.047088
    164 C55         5.5980   -1.6690   -4.2250 c3        1 MOL     -0.126974
    165 H73         4.7280   -1.0190   -4.3040 h1        1 MOL      0.060607
    166 H74         6.5040   -1.0630   -4.2140 h1        1 MOL      0.060607
    167 H75         5.6240   -2.3460   -5.0790 h1        1 MOL      0.060607
    168 H76         5.9420   -2.1310   -2.0930 hn        1 MOL      0.056145
    169 Ca1        -0.9890   -3.2130    0.7300 Ca        1 MOL      1.745487
    170 O24        -1.7030   -5.3100    2.5250 oh        1 MOL     -0.819585
    171 H77        -1.3390   -5.6740    3.3320 ho        1 MOL      0.390920
    172 H78        -2.5560   -4.9540    2.7980 ho        1 MOL      0.390920
    173 O25        -2.5560   -2.1100   -1.1080 oh        1 MOL     -0.819585
    174 H79        -3.4720   -2.0960   -0.8310 ho        1 MOL      0.390920
    175 H80        -2.3740   -1.2150   -1.3870 ho        1 MOL      0.390920
    176 O26        -0.0150   -2.6510    3.1680 oh        1 MOL     -0.819585
    177 H81        -0.0950   -2.6730    4.1220 ho        1 MOL      0.390920
    178 H82         0.5200   -1.8790    2.9790 ho        1 MOL      0.390920
    179 O27        -1.2180   -5.2810   -1.0370 oh        1 MOL     -0.819585
    180 H83        -0.5530   -5.9350   -0.7980 ho        1 MOL      0.390920
    181 H84        -1.3320   -5.4020   -1.9770 ho        1 MOL      0.390920
    182 O28        -1.6650   -0.7530    1.4930 oh        1 MOL     -0.819585
    183 H85        -1.1330   -0.1640    0.9610 ho        1 MOL      0.390920
    184 H86        -2.3250   -0.1780    1.8980 ho        1 MOL      0.390920
@<TRIPOS>BOND
     1    1    2 1   
     2    1    4 1   
     3    1    5 1   
     4    1    6 1   
     5    2    3 2   
     6    2    7 1   
     7    7    8 1   
     8    7   15 1   
     9    8    9 1   
    10    8   11 1   
    11    8   16 1   
    12    9   10 2   
    13    9   19 1   
    14   11   12 1   
    15   11   17 1   
    16   11   18 1   
    17   12   13 1   
    18   12   14 1   
    19   19   20 1   
    20   19   24 1   
    21   20   21 1   
    22   20   23 1   
    23   20   25 1   
    24   21   22 2   
    25   21   29 1   
    26   23   26 1   
    27   23   27 1   
    28   23   28 1   
    29   29   30 1   
    30   29   37 1   
    31   30   31 1   
    32   30   33 1   
    33   30   38 1   
    34   31   32 2   
    35   31   41 1   
    36   33   34 1   
    37   33   39 1   
    38   33   40 1   
    39   34   35 1   
    40   34   36 1   
    41   41   42 1   
    42   41   45 1   
    43   42   43 1   
    44   42   46 1   
    45   42   47 1   
    46   43   44 2   
    47   43   48 1   
    48   48   49 1   
    49   48   56 1   
    50   49   50 1   
    51   49   52 1   
    52   49   57 1   
    53   50   51 2   
    54   50   62 1   
    55   52   53 1   
    56   52   58 1   
    57   52   59 1   
    58   53   54 1   
    59   53   55 2   
    60   54   60 1   
    61   54   61 1   
    62   62   63 1   
    63   62   66 1   
    64   63   64 1   
    65   63   67 1   
    66   63   68 1   
    67   64   65 2   
    68   64   69 1   
    69   69   70 1   
    70   69   76 1   
    71   70   71 1   
    72   70   73 1   
    73   70   77 1   
    74   71   72 2   
    75   71   83 1   
    76   73   74 1   
    77   73   75 1   
    78   73   78 1   
    79   74   80 1   
    80   74   81 1   
    81   74   82 1   
    82   75   79 1   
    83   83   84 1   
    84   83   91 1   
    85   84   85 1   
    86   84   87 1   
    87   84   92 1   
    88   85   86 2   
    89   85  102 1   
    90   87   88 1   
    91   87   89 1   
    92   87   93 1   
    93   88   90 1   
    94   88   94 1   
    95   88   95 1   
    96   89   96 1   
    97   89   97 1   
    98   89   98 1   
    99   90   99 1   
   100   90  100 1   
   101   90  101 1   
   102  102  103 1   
   103  102  110 1   
   104  103  104 1   
   105  103  106 1   
   106  103  111 1   
   107  104  105 2   
   108  104  114 1   
   109  106  107 1   
   110  106  112 1   
   111  106  113 1   
   112  107  108 1   
   113  107  109 1   
   114  114  115 1   
   115  114  125 1   
   116  115  116 1   
   117  115  118 1   
   118  115  126 1   
   119  116  117 2   
   120  116  134 1   
   121  118  119 1   
   122  118  127 1   
   123  118  128 1   
   124  119  120 ar  
   125  119  121 ar  
   126  120  122 ar  
   127  120  129 1   
   128  121  123 ar  
   129  121  130 1   
   130  122  124 ar  
   131  122  131 1   
   132  123  124 ar  
   133  123  132 1   
   134  124  133 1   
   135  134  135 1   
   136  134  140 1   
   137  135  136 1   
   138  135  138 1   
   139  135  141 1   
   140  136  137 2   
   141  136  148 1   
   142  138  139 1   
   143  138  142 1   
   144  138  143 1   
   145  139  140 1   
   146  139  144 1   
   147  139  145 1   
   148  140  146 1   
   149  140  147 1   
   150  148  149 1   
   151  148  157 1   
   152  149  150 1   
   153  149  152 1   
   154  149  158 1   
   155  150  151 2   
   156  150  163 1   
   157  152  153 1   
   158  152  159 1   
   159  152  160 1   
   160  153  154 1   
   161  153  161 1   
   162  153  162 1   
   163  154  155 1   
   164  154  156 1   
   165  163  164 1   
   166  163  168 1   
   167  164  165 1   
   168  164  166 1   
   169  164  167 1   
   170  170  171 1   
   171  170  172 1   
   172  173  174 1   
   173  173  175 1   
   174  176  177 1   
   175  176  178 1   
   176  179  180 1   
   177  179  181 1   
   178  182  183 1   
   179  182  184 1   
@<TRIPOS>SUBSTRUCTURE
     1 MOL         1 TEMP              0 ****  ****    0 ROOT
