@<TRIPOS>MOLECULE
MOL
  192   187     1     0     0
SMALL
resp


@<TRIPOS>ATOM
      1 C1          0.1860   -3.6880    3.8750 c3        1 MOL     -0.419072
      2 C2          0.8930   -3.6490    2.4410 c         1 MOL      0.616548
      3 O1          1.8120   -2.8800    2.2540 o         1 MOL     -0.505751
      4 H1         -0.8650   -3.9490    3.7540 hc        1 MOL      0.108383
      5 H2          0.6760   -4.4320    4.5030 hc        1 MOL      0.108383
      6 H3          0.2640   -2.7070    4.3460 hc        1 MOL      0.108383
      7 N1          0.5220   -4.6230    1.5740 n         1 MOL     -0.418475
      8 C3          0.9660   -4.7690    0.1710 c3        1 MOL     -0.100611
      9 C4          2.4590   -4.7970   -0.1450 c         1 MOL      0.636569
     10 O2          2.9390   -4.4550   -1.2470 o         1 MOL     -0.520133
     11 C5          0.2200   -3.8520   -0.7370 c3        1 MOL     -0.107425
     12 C6         -1.2540   -4.0160   -0.5010 c         1 MOL      1.010995
     13 O3         -1.7090   -5.1280   -0.7630 o         1 MOL     -0.875465
     14 O4         -1.8970   -3.0840    0.0250 o         1 MOL     -0.875465
     15 H4         -0.1870   -5.2790    1.8590 hn        1 MOL      0.228786
     16 H5          0.6850   -5.7870   -0.0660 h1        1 MOL      0.107102
     17 H6          0.4030   -4.0890   -1.7850 hc        1 MOL      0.034319
     18 H7          0.4670   -2.7960   -0.6380 hc        1 MOL      0.034319
     19 N2          3.2480   -5.2770    0.8520 n         1 MOL     -0.528932
     20 C7          4.7520   -5.1790    0.8830 c3        1 MOL     -0.024923
     21 C8          5.4400   -5.9140   -0.2940 c         1 MOL      0.403385
     22 O5          4.9930   -7.0310   -0.7170 o         1 MOL     -0.581312
     23 C9          5.3600   -5.3790    2.3360 c3        1 MOL      0.161490
     24 C10         5.5480   -6.7750    2.8140 c3        1 MOL      0.119017
     25 C11         4.5540   -4.4630    3.2510 c3        1 MOL     -0.279433
     26 C12         6.0960   -6.8740    4.2360 c3        1 MOL     -0.139684
     27 H8          2.8250   -5.5830    1.7150 hn        1 MOL      0.272581
     28 H9          4.8800   -4.1310    0.6180 h1        1 MOL      0.131938
     29 H10         6.3610   -4.9540    2.3690 hc        1 MOL      0.093811
     30 H11         6.1570   -7.3370    2.1120 hc        1 MOL     -0.025264
     31 H12         4.5530   -7.2270    2.8460 hc        1 MOL     -0.025264
     32 H13         5.1160   -4.4650    4.1870 hc        1 MOL      0.067238
     33 H14         4.5240   -3.4330    2.8940 hc        1 MOL      0.067238
     34 H15         3.5360   -4.7880    3.4470 hc        1 MOL      0.067238
     35 H16         7.0010   -6.2830    4.3770 hc        1 MOL      0.017893
     36 H17         5.3250   -6.4500    4.8750 hc        1 MOL      0.017893
     37 H18         6.2850   -7.9190    4.5130 hc        1 MOL      0.017893
     38 N3          6.5470   -5.4430   -0.8350 n         1 MOL     -0.263370
     39 C13         7.2210   -4.2210   -0.4430 c3        1 MOL      0.103320
     40 C14         6.5380   -2.8970   -0.8530 c         1 MOL      0.470866
     41 O6          6.8880   -1.8040   -0.4240 o         1 MOL     -0.429183
     42 C15         8.6010   -4.1910   -1.0440 c3        1 MOL     -0.143444
     43 C16         9.5660   -3.0990   -0.4780 c         1 MOL      0.657478
     44 O7          9.6720   -2.9610    0.7770 o         1 MOL     -0.685508
     45 O8         10.2150   -2.3660   -1.2420 o         1 MOL     -0.685508
     46 H19         6.9950   -5.9360   -1.5970 hn        1 MOL      0.227131
     47 H20         7.2510   -4.1860    0.6400 h1        1 MOL     -0.108636
     48 H21         8.5180   -3.9020   -2.0860 hc        1 MOL      0.008929
     49 H22         9.0800   -5.1640   -0.9460 hc        1 MOL      0.008929
     50 N4          5.6230   -3.0090   -1.8330 n         1 MOL     -0.379084
     51 C17         4.7800   -1.9070   -2.2290 c3        1 MOL     -0.118565
     52 C18         5.5660   -0.6360   -2.7630 c         1 MOL      0.478254
     53 O9          6.7150   -0.7890   -3.1590 o         1 MOL     -0.474681
     54 H23         5.3740   -3.9150   -2.2070 hn        1 MOL      0.279525
     55 H24         4.1840   -1.5800   -1.3790 h1        1 MOL      0.085708
     56 H25         4.1630   -2.2110   -3.0780 h1        1 MOL      0.085708
     57 N5          4.8990    0.5040   -2.7910 n         1 MOL     -0.337558
     58 C19         5.3770    1.8130   -3.2780 c3        1 MOL      0.025388
     59 C20         6.0010    2.6650   -2.1820 c         1 MOL      0.540074
     60 O10         6.7640    3.6200   -2.3960 o         1 MOL     -0.575370
     61 C21         4.2100    2.5140   -3.8980 c3        1 MOL     -0.101154
     62 C22         2.9660    2.6280   -3.0100 c         1 MOL      0.748028
     63 O11         2.9010    3.5210   -2.1700 o         1 MOL     -0.695569
     64 O12         2.0110    1.8570   -3.3070 o         1 MOL     -0.695569
     65 H26         3.9080    0.3610   -2.6540 hn        1 MOL      0.171932
     66 H27         6.1510    1.6020   -4.0200 h1        1 MOL      0.059666
     67 H28         3.9200    2.0700   -4.8520 hc        1 MOL      0.004203
     68 H29         4.5550    3.5200   -4.1210 hc        1 MOL      0.004203
     69 N6          5.6950    2.2660   -0.9190 n         1 MOL     -0.278808
     70 C23         6.1340    3.0130    0.2430 c3        1 MOL     -0.158457
     71 C24         5.2510    4.1710    0.6880 c         1 MOL      0.562783
     72 O13         5.4900    4.6610    1.7510 o         1 MOL     -0.621535
     73 H30         5.2360    1.3970   -0.6740 hn        1 MOL      0.236287
     74 H31         7.1450    3.3980    0.1760 h1        1 MOL      0.107624
     75 H32         6.3120    2.3220    1.0570 h1        1 MOL      0.107624
     76 N7          4.2430    4.5700   -0.0340 n         1 MOL     -0.291989
     77 C25         3.4110    5.7890    0.0840 c3        1 MOL     -0.039728
     78 C26         2.8390    6.1010    1.4980 c         1 MOL      0.423836
     79 O14         2.2330    7.1800    1.7070 o         1 MOL     -0.521102
     80 C27         4.2030    6.9460   -0.4700 c3        1 MOL      0.111146
     81 C28         4.8560    6.6810   -1.8810 c3        1 MOL     -0.306959
     82 C29         5.3320    7.9480   -2.6290 c         1 MOL      0.652927
     83 N8          6.0570    7.8610   -3.7770 n         1 MOL     -0.816285
     84 O15         5.1020    9.0490   -2.2040 o         1 MOL     -0.547269
     85 H33         3.9890    4.0460   -0.8550 hn        1 MOL      0.117562
     86 H34         2.5470    5.6600   -0.5670 h1        1 MOL      0.157300
     87 H35         5.0280    7.2320    0.1940 hc        1 MOL      0.010957
     88 H36         3.5760    7.8410   -0.4790 hc        1 MOL      0.010957
     89 H37         4.1490    6.1310   -2.4960 hc        1 MOL      0.114749
     90 H38         5.6290    5.9320   -1.6790 hc        1 MOL      0.114749
     91 H39         6.3410    6.9020   -3.9750 hn        1 MOL      0.353530
     92 H40         6.5960    8.6760   -4.0370 hn        1 MOL      0.353530
     93 N9          2.7930    5.1170    2.4010 n         1 MOL     -0.360322
     94 C30         1.9990    5.1110    3.6600 c3        1 MOL      0.037565
     95 C31         0.7270    4.1880    3.5950 c         1 MOL      0.517881
     96 O16        -0.1940    4.5270    4.3420 o         1 MOL     -0.575926
     97 C32         2.8270    5.0920    4.9160 c3        1 MOL      0.303242
     98 C33         3.8200    3.9940    4.9610 c3        1 MOL     -0.374247
     99 C34         3.6320    6.3100    5.1870 c3        1 MOL     -0.374247
    100 H41         3.3760    4.3120    2.2600 hn        1 MOL      0.287719
    101 H42         1.5350    6.0960    3.7800 h1        1 MOL      0.083192
    102 H43         2.0870    4.9830    5.7020 hc        1 MOL     -0.049918
    103 H44         3.3550    3.0450    5.2180 hc        1 MOL      0.085628
    104 H45         4.2460    3.8850    3.9550 hc        1 MOL      0.085628
    105 H46         4.5490    4.2520    5.7250 hc        1 MOL      0.085628
    106 H47         4.1910    6.2440    6.1200 hc        1 MOL      0.085628
    107 H48         4.4560    6.3310    4.4700 hc        1 MOL      0.085628
    108 H49         3.0540    7.2470    5.1540 hc        1 MOL      0.085628
    109 N10         0.7050    3.1710    2.7570 n         1 MOL     -0.391817
    110 C35        -0.3440    2.1960    2.5590 c3        1 MOL      0.293178
    111 C36        -1.1130    2.4460    1.2960 c         1 MOL      0.485999
    112 O17        -0.6000    3.0800    0.3260 o         1 MOL     -0.511795
    113 C37         0.1740    0.7330    2.6290 c3        1 MOL     -0.580653
    114 C38        -0.8600   -0.2050    2.1570 c         1 MOL      0.696065
    115 N11        -0.4840   -1.0270    1.1830 n         1 MOL     -0.669437
    116 O18        -1.8990   -0.3140    2.7410 o         1 MOL     -0.546261
    117 H50         1.5660    3.1120    2.2260 hn        1 MOL      0.207149
    118 H51        -1.0920    2.2860    3.3440 h1        1 MOL      0.045272
    119 H52         0.4390    0.5800    3.6690 hc        1 MOL      0.156964
    120 H53         1.0390    0.7040    1.9600 hc        1 MOL      0.156964
    121 H54         0.3410   -0.7750    0.6590 hn        1 MOL      0.354027
    122 H55        -1.1130   -1.7500    0.8620 hn        1 MOL      0.354027
    123 N12        -2.4410    2.1160    1.2550 n         1 MOL     -0.507175
    124 C39        -3.2690    2.1370    0.0530 c3        1 MOL      0.151965
    125 C40        -4.7180    1.8850    0.5030 c         1 MOL      0.533542
    126 O19        -4.9660    1.1960    1.5230 o         1 MOL     -0.549549
    127 C41        -2.6530    1.0470   -0.8440 c3        1 MOL     -0.217865
    128 C42        -3.3650    0.8430   -2.0690 ca        1 MOL      0.042049
    129 C43        -4.1700   -0.2860   -2.2860 ca        1 MOL     -0.077234
    130 C44        -3.0400    1.7020   -3.1180 ca        1 MOL     -0.077234
    131 C45        -4.6360   -0.5790   -3.5910 ca        1 MOL     -0.314423
    132 C46        -3.5990    1.5500   -4.4200 ca        1 MOL     -0.314423
    133 C47        -4.2810    0.3320   -4.6500 ca        1 MOL      0.333329
    134 O20        -4.6930    0.0480   -5.8630 oh        1 MOL     -0.506430
    135 H56        -2.8270    1.6050    2.0330 hn        1 MOL      0.264516
    136 H57        -3.2300    3.0700   -0.5180 h1        1 MOL      0.063663
    137 H58        -2.6760    0.0930   -0.3130 hc        1 MOL      0.092975
    138 H59        -1.6630    1.3440   -1.1800 hc        1 MOL      0.092975
    139 H60        -4.3580   -1.0150   -1.5110 ha        1 MOL      0.143526
    140 H61        -2.2840    2.4600   -2.9570 ha        1 MOL      0.143526
    141 H62        -5.2010   -1.4910   -3.7430 ha        1 MOL      0.161704
    142 H63        -3.3060    2.2020   -5.2270 ha        1 MOL      0.161704
    143 H64        -5.2110   -0.7490   -5.9160 ho        1 MOL      0.365476
    144 N13        -5.6460    2.3210   -0.2750 n         1 MOL     -0.595527
    145 C48        -7.0240    2.2220    0.0230 c3        1 MOL      0.355049
    146 C49        -7.9850    2.0060   -1.2550 c         1 MOL      0.462805
    147 O21        -8.3260    2.9390   -1.9790 o         1 MOL     -0.512769
    148 C50        -7.4120    3.5800    0.6930 c3        1 MOL      0.088121
    149 C51        -8.8900    3.4300    1.1790 c3        1 MOL     -0.180953
    150 C52        -9.5620    4.8370    1.1420 c         1 MOL      0.630760
    151 O22        -9.6690    5.5220    2.2330 o         1 MOL     -0.699318
    152 O23       -10.1050    5.1330    0.0290 o         1 MOL     -0.699318
    153 H65        -5.4290    3.0860   -0.9060 hn        1 MOL      0.281257
    154 H66        -7.2550    1.3910    0.6930 h1        1 MOL     -0.026573
    155 H67        -7.2530    4.4570    0.0570 hc        1 MOL     -0.011946
    156 H68        -6.7960    3.7850    1.5700 hc        1 MOL     -0.011946
    157 H69        -8.8490    2.9930    2.1740 hc        1 MOL      0.029764
    158 H70        -9.4770    2.8280    0.4880 hc        1 MOL      0.029764
    159 N14        -8.4120    0.7860   -1.5650 n         1 MOL     -0.486026
    160 C53        -8.0970   -0.5060   -0.8900 c3        1 MOL     -0.032640
    161 C54        -8.7910   -0.6690    0.4340 c         1 MOL      0.569646
    162 O24        -9.9430   -0.3680    0.5320 o         1 MOL     -0.554178
    163 C55        -8.4190   -1.6760   -1.8700 c3        1 MOL     -0.021144
    164 C56        -8.1820   -3.1300   -1.4100 c3        1 MOL     -0.153786
    165 C57        -6.7350   -3.4110   -1.0750 c         1 MOL      0.685551
    166 O25        -6.1960   -4.3020   -1.7320 o         1 MOL     -0.713309
    167 O26        -6.1450   -2.8050   -0.1150 o         1 MOL     -0.713309
    168 H71        -9.0390    0.7660   -2.3520 hn        1 MOL      0.312919
    169 H72        -7.0410   -0.5580   -0.6140 h1        1 MOL      0.037507
    170 H73        -7.9120   -1.5490   -2.8250 hc        1 MOL      0.032065
    171 H74        -9.4610   -1.6550   -2.1890 hc        1 MOL      0.032065
    172 H75        -8.5920   -3.8160   -2.1520 hc        1 MOL      0.041033
    173 H76        -8.8020   -3.3530   -0.5410 hc        1 MOL      0.041033
    174 N15        -8.1140   -1.1930    1.4400 n         1 MOL     -0.283134
    175 C58        -8.4880   -1.2510    2.8790 c3        1 MOL     -0.279194
    176 H77        -9.5420   -1.5120    2.9690 h1        1 MOL      0.107366
    177 H78        -7.8820   -2.0040    3.3820 h1        1 MOL      0.107366
    178 H79        -8.3150   -0.2780    3.3390 h1        1 MOL      0.107366
    179 H80        -7.2190   -1.6360    1.2610 hn        1 MOL      0.290911
    180 Ca1        -4.0990   -4.4110   -0.1670 Ca        1 MOL      1.747388
    181 O27        -4.3280   -6.8300   -1.0260 oh        1 MOL     -0.885507
    182 H81        -4.6950   -7.6570   -0.7160 ho        1 MOL      0.419824
    183 H82        -3.5400   -7.0890   -1.5070 ho        1 MOL      0.419824
    184 O28        -6.1490   -5.7000    1.0440 oh        1 MOL     -0.885507
    185 H83        -6.0320   -5.9690    1.9570 ho        1 MOL      0.419824
    186 H84        -6.9370   -6.1650    0.7650 ho        1 MOL      0.419824
    187 O29        -4.1900   -3.4860    2.3070 oh        1 MOL     -0.885507
    188 H85        -4.8160   -2.8450    2.6420 ho        1 MOL      0.419824
    189 H86        -3.4740   -3.4700    2.9390 ho        1 MOL      0.419824
    190 O30        -3.3950   -3.6120   -2.6660 oh        1 MOL     -0.885507
    191 H87        -2.5490   -3.7470   -3.0750 ho        1 MOL      0.419824
    192 H88        -4.0170   -4.1020   -3.1990 ho        1 MOL      0.419824
@<TRIPOS>BOND
     1    1    2 1   
     2    1    4 1   
     3    1    5 1   
     4    1    6 1   
     5    2    3 2   
     6    2    7 1   
     7    7    8 1   
     8    7   15 1   
     9    8    9 1   
    10    8   11 1   
    11    8   16 1   
    12    9   10 2   
    13    9   19 1   
    14   11   12 1   
    15   11   17 1   
    16   11   18 1   
    17   12   13 1   
    18   12   14 1   
    19   19   20 1   
    20   19   27 1   
    21   20   21 1   
    22   20   23 1   
    23   20   28 1   
    24   21   22 2   
    25   21   38 1   
    26   23   24 1   
    27   23   25 1   
    28   23   29 1   
    29   24   26 1   
    30   24   30 1   
    31   24   31 1   
    32   25   32 1   
    33   25   33 1   
    34   25   34 1   
    35   26   35 1   
    36   26   36 1   
    37   26   37 1   
    38   38   39 1   
    39   38   46 1   
    40   39   40 1   
    41   39   42 1   
    42   39   47 1   
    43   40   41 2   
    44   40   50 1   
    45   42   43 1   
    46   42   48 1   
    47   42   49 1   
    48   43   44 1   
    49   43   45 1   
    50   50   51 1   
    51   50   54 1   
    52   51   52 1   
    53   51   55 1   
    54   51   56 1   
    55   52   53 2   
    56   52   57 1   
    57   57   58 1   
    58   57   65 1   
    59   58   59 1   
    60   58   61 1   
    61   58   66 1   
    62   59   60 2   
    63   59   69 1   
    64   61   62 1   
    65   61   67 1   
    66   61   68 1   
    67   62   63 1   
    68   62   64 1   
    69   69   70 1   
    70   69   73 1   
    71   70   71 1   
    72   70   74 1   
    73   70   75 1   
    74   71   72 2   
    75   71   76 1   
    76   76   77 1   
    77   76   85 1   
    78   77   78 1   
    79   77   80 1   
    80   77   86 1   
    81   78   79 2   
    82   78   93 1   
    83   80   81 1   
    84   80   87 1   
    85   80   88 1   
    86   81   82 1   
    87   81   89 1   
    88   81   90 1   
    89   82   83 1   
    90   82   84 2   
    91   83   91 1   
    92   83   92 1   
    93   93   94 1   
    94   93  100 1   
    95   94   95 1   
    96   94   97 1   
    97   94  101 1   
    98   95   96 2   
    99   95  109 1   
   100   97   98 1   
   101   97   99 1   
   102   97  102 1   
   103   98  103 1   
   104   98  104 1   
   105   98  105 1   
   106   99  106 1   
   107   99  107 1   
   108   99  108 1   
   109  109  110 1   
   110  109  117 1   
   111  110  111 1   
   112  110  113 1   
   113  110  118 1   
   114  111  112 2   
   115  111  123 1   
   116  113  114 1   
   117  113  119 1   
   118  113  120 1   
   119  114  115 1   
   120  114  116 2   
   121  115  121 1   
   122  115  122 1   
   123  123  124 1   
   124  123  135 1   
   125  124  125 1   
   126  124  127 1   
   127  124  136 1   
   128  125  126 2   
   129  125  144 1   
   130  127  128 1   
   131  127  137 1   
   132  127  138 1   
   133  128  129 ar  
   134  128  130 ar  
   135  129  131 ar  
   136  129  139 1   
   137  130  132 ar  
   138  130  140 1   
   139  131  133 ar  
   140  131  141 1   
   141  132  133 ar  
   142  132  142 1   
   143  133  134 1   
   144  134  143 1   
   145  144  145 1   
   146  144  153 1   
   147  145  146 1   
   148  145  148 1   
   149  145  154 1   
   150  146  147 2   
   151  146  159 1   
   152  148  149 1   
   153  148  155 1   
   154  148  156 1   
   155  149  150 1   
   156  149  157 1   
   157  149  158 1   
   158  150  151 1   
   159  150  152 1   
   160  159  160 1   
   161  159  168 1   
   162  160  161 1   
   163  160  163 1   
   164  160  169 1   
   165  161  162 2   
   166  161  174 1   
   167  163  164 1   
   168  163  170 1   
   169  163  171 1   
   170  164  165 1   
   171  164  172 1   
   172  164  173 1   
   173  165  166 1   
   174  165  167 1   
   175  174  175 1   
   176  174  179 1   
   177  175  176 1   
   178  175  177 1   
   179  175  178 1   
   180  181  182 1   
   181  181  183 1   
   182  184  185 1   
   183  184  186 1   
   184  187  188 1   
   185  187  189 1   
   186  190  191 1   
   187  190  192 1   
@<TRIPOS>SUBSTRUCTURE
     1 MOL         1 TEMP              0 ****  ****    0 ROOT
