@<TRIPOS>MOLECULE
MOL
  188   182     1     0     0
SMALL
resp


@<TRIPOS>ATOM
      1 C1         -7.0100   -2.0810    3.3690 c3        1 MOL     -0.539273
      2 C2         -6.9400   -1.8520    1.8790 c         1 MOL      0.861181
      3 O1         -6.0430   -1.2100    1.3540 o         1 MOL     -0.627354
      4 H1         -7.3670   -3.0920    3.5640 hc        1 MOL      0.134898
      5 H2         -6.0190   -1.9560    3.8030 hc        1 MOL      0.134898
      6 H3         -7.6970   -1.3610    3.8160 hc        1 MOL      0.134898
      7 N1         -8.0180   -2.2290    1.2220 n         1 MOL     -0.668464
      8 C3         -8.3380   -1.9000   -0.1400 c3        1 MOL      0.102755
      9 C4         -8.3940   -0.4300   -0.5100 c         1 MOL      0.503938
     10 O2         -8.3030   -0.0270   -1.6430 o         1 MOL     -0.502597
     11 C5         -7.4130   -2.7080   -1.0780 c3        1 MOL     -0.154066
     12 C6         -7.8620   -4.1870   -1.2570 c         1 MOL      0.635163
     13 O3         -7.2080   -4.8350   -2.1200 o         1 MOL     -0.658033
     14 O4         -8.9760   -4.5880   -0.8230 o         1 MOL     -0.658033
     15 H4         -8.5770   -2.9100    1.7050 hn        1 MOL      0.312303
     16 H5         -9.3380   -2.2910   -0.3090 h1        1 MOL      0.036435
     17 H6         -6.4260   -2.6410   -0.6290 hc        1 MOL      0.075875
     18 H7         -7.3470   -2.2190   -2.0560 hc        1 MOL      0.075875
     19 N2         -8.6090    0.3960    0.5330 n         1 MOL     -0.471600
     20 C7         -8.6700    1.9000    0.5460 c3        1 MOL      0.172692
     21 C8         -7.2560    2.5600    0.2910 c         1 MOL      0.501343
     22 O5         -7.1240    3.7450    0.0700 o         1 MOL     -0.569565
     23 C9         -9.2580    2.4490    1.8220 c3        1 MOL     -0.240422
     24 C10       -10.7910    2.1030    2.1540 c3        1 MOL      0.211215
     25 C11       -11.8250    2.7340    1.1640 c3        1 MOL     -0.168126
     26 C12       -13.2370    2.2910    1.4050 c3        1 MOL     -0.041054
     27 N3        -13.2540    0.8290    1.1750 n4        1 MOL     -0.277331
     28 H8         -8.7210   -0.1390    1.3850 hn        1 MOL      0.268511
     29 H9         -9.3670    2.2920   -0.1900 h1        1 MOL      0.029169
     30 H10        -9.2240    3.5400    1.8620 hc        1 MOL      0.072994
     31 H11        -8.6320    2.0600    2.6290 hc        1 MOL      0.072994
     32 H12       -11.0700    2.3970    3.1660 hc        1 MOL     -0.048975
     33 H13       -10.7220    1.0170    2.1640 hc        1 MOL     -0.048975
     34 H14       -11.5230    2.4110    0.1730 hc        1 MOL      0.103184
     35 H15       -11.9800    3.7950    1.3420 hc        1 MOL      0.103184
     36 H16       -13.9530    2.7800    0.7380 hx        1 MOL      0.106063
     37 H17       -13.5570    2.5800    2.4140 hx        1 MOL      0.106063
     38 H18       -14.1800    0.4470    1.3460 hn        1 MOL      0.263473
     39 H19       -13.0240    0.5920    0.2240 hn        1 MOL      0.263473
     40 H20       -12.7320    0.4340    1.9490 hn        1 MOL      0.263473
     41 N4         -6.2210    1.7700    0.2810 n         1 MOL     -0.299898
     42 C13        -4.8410    2.2840    0.2090 c3        1 MOL      0.097483
     43 C14        -4.5680    2.5320   -1.3430 c         1 MOL      0.703586
     44 O6         -5.0510    1.7750   -2.1470 o         1 MOL     -0.463920
     45 C15        -3.8020    1.2540    0.7820 c3        1 MOL     -0.376290
     46 C16        -2.3290    1.6530    0.5580 c         1 MOL      0.666280
     47 O7         -1.5550    2.0720    1.4880 o         1 MOL     -0.649025
     48 O8         -1.8060    1.5040   -0.5870 o         1 MOL     -0.649025
     49 H21        -6.2100    0.7990    0.5870 hn        1 MOL      0.211135
     50 H22        -4.7040    3.2890    0.6250 h1        1 MOL      0.027294
     51 H23        -4.0150    0.2590    0.3960 hc        1 MOL      0.110215
     52 H24        -3.9790    1.1660    1.8480 hc        1 MOL      0.110215
     53 N5         -3.7760    3.6030   -1.7190 n         1 MOL     -0.665164
     54 C17        -3.3650    3.9490   -3.1200 c3        1 MOL      0.073150
     55 C18        -2.5480    3.0080   -4.0120 c         1 MOL      0.426877
     56 O9         -2.6080    3.0550   -5.2430 o         1 MOL     -0.554002
     57 H25        -3.2900    4.1450   -1.0230 hn        1 MOL      0.362958
     58 H26        -2.8890    4.9310   -3.1410 h1        1 MOL      0.061397
     59 H27        -4.2820    4.1390   -3.6710 h1        1 MOL      0.061397
     60 N6         -1.8680    2.0490   -3.4530 n         1 MOL     -0.172850
     61 C19        -1.5380    0.8060   -4.1600 c3        1 MOL      0.031822
     62 C20        -1.9790   -0.5110   -3.5180 c         1 MOL      0.374461
     63 O10        -1.6320   -1.6060   -3.9310 o         1 MOL     -0.496273
     64 C21        -0.0900    0.7620   -4.4880 c3        1 MOL     -0.351512
     65 C22         0.8140    0.3870   -3.3130 c         1 MOL      0.714856
     66 N7          2.0340   -0.0380   -3.5790 n         1 MOL     -0.776989
     67 O11         0.5310    0.6200   -2.0990 o         1 MOL     -0.602276
     68 H28        -2.0250    1.9270   -2.4660 hn        1 MOL      0.110160
     69 H29        -1.9870    0.8600   -5.1580 h1        1 MOL      0.155056
     70 H30         0.2700    1.6900   -4.9450 hc        1 MOL      0.111342
     71 H31        -0.0370   -0.0400   -5.2200 hc        1 MOL      0.111342
     72 H32         2.3190   -0.3500   -4.4940 hn        1 MOL      0.359297
     73 H33         2.6650   -0.2220   -2.8160 hn        1 MOL      0.359297
     74 N8         -2.8450   -0.4530   -2.4770 n         1 MOL      0.057008
     75 C23        -3.4710   -1.6720   -1.8380 c3        1 MOL     -0.551857
     76 C24        -2.7140   -2.3530   -0.7360 c         1 MOL      0.797445
     77 O12        -2.7410   -3.5290   -0.5000 o         1 MOL     -0.578725
     78 H34        -3.0510    0.4380   -2.0610 hn        1 MOL     -0.053734
     79 H35        -3.6980   -2.3430   -2.6750 h1        1 MOL      0.208577
     80 H36        -4.3680   -1.3260   -1.3180 h1        1 MOL      0.208577
     81 N9         -1.9160   -1.5590   -0.0490 n         1 MOL     -0.471862
     82 C25        -1.0980   -1.8750    1.1150 c3        1 MOL      0.034889
     83 C26         0.2480   -1.3180    0.9580 c         1 MOL      0.453108
     84 O13         0.4250   -0.1520    0.7380 o         1 MOL     -0.516174
     85 C27        -1.8690   -1.5040    2.3780 c3        1 MOL     -0.094927
     86 C28        -1.1320   -1.7100    3.6420 ca        1 MOL      0.007682
     87 C29        -1.1310   -3.0190    4.2150 ca        1 MOL     -0.167095
     88 C30        -0.3090   -0.6510    4.1490 ca        1 MOL     -0.167095
     89 C31        -0.4970   -3.2540    5.3970 ca        1 MOL     -0.250053
     90 C32         0.3370   -0.8980    5.3770 ca        1 MOL     -0.250053
     91 C33         0.2210   -2.1670    5.9980 ca        1 MOL      0.324404
     92 O14         0.7310   -2.3330    7.2550 oh        1 MOL     -0.457291
     93 H37        -1.8250   -0.6610   -0.5080 hn        1 MOL      0.305070
     94 H38        -1.0350   -2.9650    1.1120 h1        1 MOL      0.036533
     95 H39        -2.7880   -2.1000    2.3180 hc        1 MOL      0.084727
     96 H40        -2.1600   -0.4540    2.3400 hc        1 MOL      0.084727
     97 H41        -1.6750   -3.7760    3.6680 ha        1 MOL      0.161488
     98 H42        -0.1790    0.3060    3.6650 ha        1 MOL      0.161488
     99 H43        -0.4950   -4.2010    5.9150 ha        1 MOL      0.156945
    100 H44         0.8670   -0.0620    5.8040 ha        1 MOL      0.156945
    101 H45         1.1410   -1.4760    7.4180 ho        1 MOL      0.333339
    102 N10         1.2700   -2.1890    1.1990 n         1 MOL     -0.476229
    103 C34         2.6870   -1.8270    1.0180 c3        1 MOL     -0.049474
    104 C35         3.0750   -1.9620   -0.4620 c         1 MOL      0.564236
    105 O15         3.5410   -0.9630   -1.0010 o         1 MOL     -0.544830
    106 C36         3.6060   -2.6520    1.9690 c3        1 MOL     -0.073401
    107 C37         3.3310   -2.5550    3.4420 c3        1 MOL      0.304201
    108 C38         5.1430   -2.3400    1.7970 c3        1 MOL     -0.564215
    109 C39         3.1660   -1.1370    3.9790 c3        1 MOL     -0.092252
    110 H46         0.9620   -3.1240    1.4200 hn        1 MOL      0.313226
    111 H47         2.8680   -0.8070    1.3230 h1        1 MOL      0.172647
    112 H48         3.4720   -3.6860    1.6310 hc        1 MOL      0.009766
    113 H49         4.0650   -3.0450    4.0690 hc        1 MOL     -0.050729
    114 H50         2.4140   -3.0540    3.7450 hc        1 MOL     -0.050729
    115 H51         5.6710   -3.1230    2.3660 hc        1 MOL      0.154131
    116 H52         5.4520   -2.4650    0.7560 hc        1 MOL      0.154131
    117 H53         5.4960   -1.4010    2.2170 hc        1 MOL      0.154131
    118 H54         4.1140   -0.6280    3.7790 hc        1 MOL      0.013199
    119 H55         2.3390   -0.4950    3.6600 hc        1 MOL      0.013199
    120 H56         3.0980   -1.1950    5.0690 hc        1 MOL      0.013199
    121 N11         2.8200   -3.1080   -1.0970 n         1 MOL     -0.253231
    122 C40         3.2350   -3.3630   -2.4680 c3        1 MOL     -0.038098
    123 C41         4.7840   -3.3700   -2.7070 c         1 MOL      0.578041
    124 O16         5.2430   -2.8700   -3.6940 o         1 MOL     -0.529157
    125 C42         2.6740   -4.6480   -3.0980 c3        1 MOL      0.024202
    126 O17         3.0680   -5.6710   -2.2200 oh        1 MOL     -0.617502
    127 H57         2.4750   -3.9110   -0.5940 hn        1 MOL      0.252763
    128 H58         2.8580   -2.5500   -3.0790 h1        1 MOL      0.058815
    129 H59         3.1210   -4.7590   -4.0920 h1        1 MOL      0.084151
    130 H60         1.5930   -4.5200   -3.1210 h1        1 MOL      0.084151
    131 H61         2.5160   -6.3980   -2.5000 ho        1 MOL      0.436790
    132 N12         5.5550   -3.8200   -1.6930 n         1 MOL     -0.316324
    133 C43         7.0390   -3.8460   -1.5950 c3        1 MOL      0.124807
    134 C44         7.7610   -2.4970   -1.6910 c         1 MOL      0.503463
    135 O18         8.9810   -2.4550   -1.9270 o         1 MOL     -0.548349
    136 C45         7.7060   -4.9180   -2.5450 c3        1 MOL     -0.654979
    137 H62         5.1270   -4.4380   -1.0210 hn        1 MOL      0.243128
    138 H63         7.1910   -4.1250   -0.5560 h1        1 MOL      0.072186
    139 H64         7.3850   -5.9280   -2.3060 hc        1 MOL      0.196646
    140 H65         7.4990   -4.4360   -3.5060 hc        1 MOL      0.196646
    141 H66         8.7880   -4.9730   -2.3910 hc        1 MOL      0.196646
    142 N13         7.0780   -1.3440   -1.5140 n         1 MOL     -0.348470
    143 C46         7.6250   -0.0130   -1.6320 c3        1 MOL      0.313552
    144 C47         8.0840    0.6230   -0.3370 c         1 MOL      0.327195
    145 O19         7.3740    0.5790    0.7040 o         1 MOL     -0.463785
    146 C48         6.5360    0.8460   -2.3580 c3        1 MOL     -0.396595
    147 H67         6.1250   -1.4050   -1.2060 hn        1 MOL      0.171721
    148 H68         8.5090   -0.0830   -2.2470 h1        1 MOL      0.012308
    149 H69         6.3430    0.4890   -3.3690 hc        1 MOL      0.101343
    150 H70         5.5720    0.7270   -1.8540 hc        1 MOL      0.101343
    151 H71         6.9320    1.8510   -2.3180 hc        1 MOL      0.101343
    152 N14         9.2190    1.2410   -0.3860 n         1 MOL     -0.376794
    153 C49         9.9430    1.9550    0.6590 c3        1 MOL      0.134850
    154 C50        10.1370    1.0900    1.9790 c         1 MOL      0.352719
    155 O20         9.9870    1.5750    3.1130 o         1 MOL     -0.439150
    156 C51         9.2730    3.3780    0.7070 c3        1 MOL     -0.004674
    157 C52        10.2070    4.4930    1.2530 c3        1 MOL     -0.159880
    158 C53         9.4250    5.8380    1.3000 c         1 MOL      0.650293
    159 O21         8.8650    6.2220    2.3710 o         1 MOL     -0.659640
    160 O22         9.4840    6.5520    0.2380 o         1 MOL     -0.659640
    161 H72         9.7150    1.1530   -1.2560 hn        1 MOL      0.269032
    162 H73        10.9580    2.1230    0.2940 h1        1 MOL      0.039074
    163 H74         8.3790    3.2090    1.2980 hc        1 MOL      0.018347
    164 H75         9.0700    3.6530   -0.3250 hc        1 MOL      0.018347
    165 H76        11.0320    4.5610    0.5450 hc        1 MOL      0.029730
    166 H77        10.5720    4.2130    2.2390 hc        1 MOL      0.029730
    167 N15        10.4550   -0.2150    1.8530 n         1 MOL     -0.366652
    168 C54        10.4630   -1.2280    2.9300 c3        1 MOL      0.108730
    169 H78         9.6510   -1.9380    2.7660 h1        1 MOL      0.025714
    170 H79        11.4150   -1.7580    2.9250 h1        1 MOL      0.025714
    171 H80        10.3260   -0.7370    3.8940 h1        1 MOL      0.025714
    172 H81        10.3750   -0.6330    0.9370 hn        1 MOL      0.224547
    173 Ca1         0.5890    2.4120   -0.0500 Ca        1 MOL      1.757664
    174 O23        -0.9330    4.6520   -0.2940 oh        1 MOL     -0.850729
    175 H82        -0.5280    4.9920   -1.1010 ho        1 MOL      0.416225
    176 H83        -1.2690    5.4310    0.1380 ho        1 MOL      0.416225
    177 O24         3.2070    1.9390   -0.0470 oh        1 MOL     -0.850729
    178 H84         3.4670    2.4070   -0.8490 ho        1 MOL      0.416225
    179 H85         3.9770    1.9480    0.5060 ho        1 MOL      0.416225
    180 O25         1.0650    3.5190   -2.4890 oh        1 MOL     -0.850729
    181 H86         1.8640    3.1510   -2.8560 ho        1 MOL      0.416225
    182 H87         0.9450    4.3440   -2.9620 ho        1 MOL      0.416225
    183 O26         1.2190    2.6990    2.4870 oh        1 MOL     -0.850729
    184 H88         1.0950    2.5800    3.4190 ho        1 MOL      0.416225
    185 H89         2.0950    3.0720    2.4050 ho        1 MOL      0.416225
    186 O27         2.0870    4.7240    0.3040 oh        1 MOL     -0.850729
    187 H90         2.8670    5.1560   -0.0470 ho        1 MOL      0.416225
    188 H91         1.5840    5.4280    0.7200 ho        1 MOL      0.416225
@<TRIPOS>BOND
     1    1    2 1   
     2    1    4 1   
     3    1    5 1   
     4    1    6 1   
     5    2    3 2   
     6    2    7 1   
     7    7    8 1   
     8    7   15 1   
     9    8    9 1   
    10    8   11 1   
    11    8   16 1   
    12    9   10 2   
    13    9   19 1   
    14   11   12 1   
    15   11   17 1   
    16   11   18 1   
    17   12   13 1   
    18   12   14 1   
    19   19   20 1   
    20   19   28 1   
    21   20   21 1   
    22   20   23 1   
    23   20   29 1   
    24   21   22 2   
    25   21   41 1   
    26   23   24 1   
    27   23   30 1   
    28   23   31 1   
    29   24   25 1   
    30   24   32 1   
    31   24   33 1   
    32   25   26 1   
    33   25   34 1   
    34   25   35 1   
    35   26   27 1   
    36   26   36 1   
    37   26   37 1   
    38   27   38 1   
    39   27   39 1   
    40   27   40 1   
    41   41   42 1   
    42   41   49 1   
    43   42   43 1   
    44   42   45 1   
    45   42   50 1   
    46   43   44 2   
    47   43   53 1   
    48   45   46 1   
    49   45   51 1   
    50   45   52 1   
    51   46   47 1   
    52   46   48 1   
    53   53   54 1   
    54   53   57 1   
    55   54   55 1   
    56   54   58 1   
    57   54   59 1   
    58   55   56 2   
    59   55   60 1   
    60   60   61 1   
    61   60   68 1   
    62   61   62 1   
    63   61   64 1   
    64   61   69 1   
    65   62   63 2   
    66   62   74 1   
    67   64   65 1   
    68   64   70 1   
    69   64   71 1   
    70   65   66 1   
    71   65   67 2   
    72   66   72 1   
    73   66   73 1   
    74   74   75 1   
    75   74   78 1   
    76   75   76 1   
    77   75   79 1   
    78   75   80 1   
    79   76   77 2   
    80   76   81 1   
    81   81   82 1   
    82   81   93 1   
    83   82   83 1   
    84   82   85 1   
    85   82   94 1   
    86   83   84 2   
    87   83  102 1   
    88   85   86 1   
    89   85   95 1   
    90   85   96 1   
    91   86   87 ar  
    92   86   88 ar  
    93   87   89 ar  
    94   87   97 1   
    95   88   90 ar  
    96   88   98 1   
    97   89   91 ar  
    98   89   99 1   
    99   90   91 ar  
   100   90  100 1   
   101   91   92 1   
   102   92  101 1   
   103  102  103 1   
   104  102  110 1   
   105  103  104 1   
   106  103  106 1   
   107  103  111 1   
   108  104  105 2   
   109  104  121 1   
   110  106  107 1   
   111  106  108 1   
   112  106  112 1   
   113  107  109 1   
   114  107  113 1   
   115  107  114 1   
   116  108  115 1   
   117  108  116 1   
   118  108  117 1   
   119  109  118 1   
   120  109  119 1   
   121  109  120 1   
   122  121  122 1   
   123  121  127 1   
   124  122  123 1   
   125  122  125 1   
   126  122  128 1   
   127  123  124 2   
   128  123  132 1   
   129  125  126 1   
   130  125  129 1   
   131  125  130 1   
   132  126  131 1   
   133  132  133 1   
   134  132  137 1   
   135  133  134 1   
   136  133  136 1   
   137  133  138 1   
   138  134  135 2   
   139  134  142 1   
   140  136  139 1   
   141  136  140 1   
   142  136  141 1   
   143  142  143 1   
   144  142  147 1   
   145  143  144 1   
   146  143  146 1   
   147  143  148 1   
   148  144  145 2   
   149  144  152 1   
   150  146  149 1   
   151  146  150 1   
   152  146  151 1   
   153  152  153 1   
   154  152  161 1   
   155  153  154 1   
   156  153  156 1   
   157  153  162 1   
   158  154  155 2   
   159  154  167 1   
   160  156  157 1   
   161  156  163 1   
   162  156  164 1   
   163  157  158 1   
   164  157  165 1   
   165  157  166 1   
   166  158  159 1   
   167  158  160 1   
   168  167  168 1   
   169  167  172 1   
   170  168  169 1   
   171  168  170 1   
   172  168  171 1   
   173  174  175 1   
   174  174  176 1   
   175  177  178 1   
   176  177  179 1   
   177  180  181 1   
   178  180  182 1   
   179  183  184 1   
   180  183  185 1   
   181  186  187 1   
   182  186  188 1   
@<TRIPOS>SUBSTRUCTURE
     1 MOL         1 TEMP              0 ****  ****    0 ROOT
