@<TRIPOS>MOLECULE
MOL
  179   176     1     0     0
SMALL
resp


@<TRIPOS>ATOM
      1 C1          3.9700    0.7140    5.6840 c3        1 MOL     -0.272261
      2 C2          3.5290    0.8820    4.1850 c         1 MOL      0.708877
      3 O1          4.2430    0.5170    3.2670 o         1 MOL     -0.568570
      4 H1          3.1520    0.2740    6.2550 hc        1 MOL      0.076950
      5 H2          4.8420    0.0620    5.7360 hc        1 MOL      0.076950
      6 H3          4.2190    1.6900    6.1010 hc        1 MOL      0.076950
      7 N1          2.4010    1.5650    3.9200 n         1 MOL     -0.628383
      8 C3          1.7740    1.7500    2.5730 c3        1 MOL      0.056030
      9 C4          2.1990    3.0980    1.8900 c         1 MOL      0.637244
     10 O2          1.7040    4.1540    2.1860 o         1 MOL     -0.569050
     11 C5          0.2580    1.4800    2.6890 c3        1 MOL     -0.067541
     12 C6         -0.3720    1.4850    1.3020 c         1 MOL      0.576889
     13 O3         -1.6020    1.6800    1.3360 o         1 MOL     -0.659025
     14 O4          0.2740    1.2680    0.2140 o         1 MOL     -0.659025
     15 H4          1.8100    1.7780    4.7160 hn        1 MOL      0.311580
     16 H5          2.2270    0.9540    1.9700 h1        1 MOL      0.013049
     17 H6         -0.2250    2.1730    3.3780 hc        1 MOL      0.030572
     18 H7          0.2080    0.4860    3.1130 hc        1 MOL      0.030572
     19 N2          3.0720    3.0310    0.8900 n         1 MOL     -0.376391
     20 C7          3.5730    4.2250    0.1690 c3        1 MOL     -0.098759
     21 C8          2.5740    4.9250   -0.7660 c         1 MOL      0.400307
     22 O5          2.7460    6.1500   -1.0390 o         1 MOL     -0.541914
     23 C9          4.9840    3.9020   -0.4620 c3        1 MOL     -0.126916
     24 C10         5.7700    5.0530   -1.0480 c3        1 MOL      0.330334
     25 C11         7.1870    4.6690   -1.4720 c3        1 MOL     -0.496254
     26 C12         8.0590    3.9400   -0.4080 c3        1 MOL      0.184932
     27 N3          9.2200    3.3970   -1.0790 n4        1 MOL     -0.374242
     28 H8          3.3560    2.1140    0.5790 hn        1 MOL      0.273099
     29 H9          3.8060    4.9850    0.9190 h1        1 MOL      0.136664
     30 H10         4.9260    3.1680   -1.2680 hc        1 MOL      0.050592
     31 H11         5.5580    3.5380    0.3960 hc        1 MOL      0.050592
     32 H12         5.8890    5.8410   -0.3080 hc        1 MOL     -0.019948
     33 H13         5.1940    5.5610   -1.8120 hc        1 MOL     -0.019948
     34 H14         7.7060    5.5720   -1.8070 hc        1 MOL      0.125911
     35 H15         7.0220    4.0990   -2.3840 hc        1 MOL      0.125911
     36 H16         7.4450    3.1090   -0.0600 hx        1 MOL      0.077542
     37 H17         8.3020    4.5420    0.4730 hx        1 MOL      0.077542
     38 H18         9.8540    4.1010   -1.4080 hn        1 MOL      0.326863
     39 H19         9.7290    2.7990   -0.4300 hn        1 MOL      0.326863
     40 H20         8.8760    3.0870   -1.9650 hn        1 MOL      0.326863
     41 N4          1.5500    4.2350   -1.1960 n         1 MOL     -0.260848
     42 C13         0.4200    4.9540   -1.8370 c3        1 MOL     -0.102285
     43 C14        -0.6550    5.3440   -0.8340 c         1 MOL      0.435170
     44 O6         -1.5870    6.0730   -1.2530 o         1 MOL     -0.529675
     45 C15        -0.1350    4.0290   -2.9750 c3        1 MOL     -0.068899
     46 C16        -0.6520    2.6920   -2.5400 c         1 MOL      0.683545
     47 O7         -1.4760    2.7030   -1.6240 o         1 MOL     -0.792614
     48 O8         -0.1950    1.5660   -2.8690 o         1 MOL     -0.792614
     49 H21         1.4220    3.2910   -0.8630 hn        1 MOL      0.278867
     50 H22         0.7330    5.8300   -2.4180 h1        1 MOL      0.151216
     51 H23         0.6630    3.8540   -3.6930 hc        1 MOL      0.044318
     52 H24        -0.8270    4.5000   -3.6600 hc        1 MOL      0.044318
     53 N5         -0.6100    4.8840    0.4490 n         1 MOL     -0.017345
     54 C17        -1.4570    5.4930    1.5110 c3        1 MOL     -0.206234
     55 C18        -2.9290    5.2070    1.2750 c         1 MOL      0.630900
     56 O9         -3.7610    5.9640    1.7840 o         1 MOL     -0.583580
     57 H25         0.0930    4.2130    0.7380 hn        1 MOL      0.163549
     58 H26        -1.3830    6.5740    1.4920 h1        1 MOL      0.108448
     59 H27        -1.1260    5.0810    2.4690 h1        1 MOL      0.108448
     60 N6         -3.3790    4.2420    0.4620 n         1 MOL     -0.309944
     61 C19        -4.7160    4.1520   -0.0580 c3        1 MOL      0.120601
     62 C20        -5.0180    2.7470   -0.5370 c         1 MOL      0.452317
     63 O10        -4.1360    1.9140   -0.9100 o         1 MOL     -0.441986
     64 C21        -4.9900    5.1860   -1.1780 c3        1 MOL     -0.333917
     65 C22        -4.6060    4.7220   -2.5850 c         1 MOL      0.709965
     66 N7         -3.3830    4.5240   -2.9230 n         1 MOL     -0.753359
     67 O11        -5.5090    4.4280   -3.3420 o         1 MOL     -0.635146
     68 H28        -2.6910    3.6820   -0.0100 hn        1 MOL      0.063947
     69 H29        -5.3760    4.4330    0.7660 h1        1 MOL      0.067501
     70 H30        -4.4560    6.1150   -0.9820 hc        1 MOL      0.111894
     71 H31        -6.0650    5.3630   -1.1770 hc        1 MOL      0.111894
     72 H32        -2.6810    4.6800   -2.2080 hn        1 MOL      0.357794
     73 H33        -3.3070    3.9050   -3.7210 hn        1 MOL      0.357794
     74 N8         -6.2900    2.3140   -0.6480 n         1 MOL     -0.437677
     75 C23        -6.6870    0.9640   -0.9580 c3        1 MOL      0.035606
     76 C24        -6.3740   -0.0550    0.0380 c         1 MOL      0.529784
     77 O12        -6.3620    0.2220    1.2720 o         1 MOL     -0.513422
     78 H34        -7.0220    2.9010   -0.2740 hn        1 MOL      0.317226
     79 H35        -6.2250    0.6570   -1.8940 h1        1 MOL      0.061078
     80 H36        -7.7600    0.9990   -1.1620 h1        1 MOL      0.061078
     81 N9         -6.0420   -1.3340   -0.3350 n         1 MOL     -0.522147
     82 C25        -5.4100   -2.3710    0.5100 c3        1 MOL      0.263972
     83 C26        -4.0400   -1.9800    1.0640 c         1 MOL      0.425542
     84 O13        -3.5460   -1.0380    0.4970 o         1 MOL     -0.398401
     85 C27        -5.3200   -3.5670   -0.3820 c3        1 MOL     -0.217696
     86 C28        -6.6460   -4.2260   -0.7190 ca        1 MOL      0.180802
     87 C29        -7.1550   -5.1290    0.1250 ca        1 MOL     -0.237957
     88 C30        -7.3830   -3.8630   -1.8820 ca        1 MOL     -0.237957
     89 C31        -8.3670   -5.7630   -0.1700 ca        1 MOL     -0.198011
     90 C32        -8.6600   -4.4400   -2.1750 ca        1 MOL     -0.198011
     91 C33        -9.1530   -5.3630   -1.2640 ca        1 MOL      0.287572
     92 O14       -10.2560   -6.0830   -1.4940 oh        1 MOL     -0.469549
     93 H37        -6.1390   -1.4890   -1.3260 hn        1 MOL      0.192756
     94 H38        -6.0180   -2.4610    1.4170 h1        1 MOL      0.054668
     95 H39        -4.7750   -4.3330    0.1670 hc        1 MOL      0.050053
     96 H40        -4.7870   -3.3650   -1.3120 hc        1 MOL      0.050053
     97 H41        -6.6380   -5.4030    1.0430 ha        1 MOL      0.146571
     98 H42        -7.0780   -3.0730   -2.5530 ha        1 MOL      0.146571
     99 H43        -8.8030   -6.4900    0.5030 ha        1 MOL      0.142937
    100 H44        -9.1720   -4.1610   -3.0870 ha        1 MOL      0.142937
    101 H45       -10.7020   -5.8270   -2.2980 ho        1 MOL      0.372713
    102 N10        -3.5450   -2.5260    2.1810 n         1 MOL     -0.661178
    103 C34        -2.3620   -2.1650    2.9620 c3        1 MOL      0.322284
    104 C35        -1.0390   -1.9550    2.1950 c         1 MOL      0.579434
    105 O15        -1.0400   -1.2110    1.1890 o         1 MOL     -0.669433
    106 C36        -2.5510   -0.9050    3.8780 c3        1 MOL      0.338203
    107 C37        -1.5510   -0.8010    5.1020 c3        1 MOL     -0.118724
    108 C38        -3.9770   -0.8040    4.3760 c3        1 MOL     -0.115005
    109 C39        -1.5940   -2.0120    5.9950 c3        1 MOL     -0.547565
    110 H46        -4.1570   -3.1570    2.6780 hn        1 MOL      0.322531
    111 H47        -2.0910   -2.9740    3.6500 h1        1 MOL     -0.049560
    112 H48        -2.3100   -0.0220    3.3040 hc        1 MOL     -0.092822
    113 H49        -1.7260    0.1190    5.6510 hc        1 MOL      0.084659
    114 H50        -0.5420   -0.7340    4.6880 hc        1 MOL      0.084659
    115 H51        -4.7000   -0.5380    3.6010 hc        1 MOL      0.023219
    116 H52        -4.1780   -1.8100    4.7450 hc        1 MOL      0.023219
    117 H53        -4.1520   -0.0540    5.1380 hc        1 MOL      0.023219
    118 H54        -0.9420   -1.7300    6.8110 hc        1 MOL      0.136463
    119 H55        -2.5860   -2.1330    6.4280 hc        1 MOL      0.136463
    120 H56        -1.1300   -2.8990    5.5570 hc        1 MOL      0.136463
    121 N11         0.0210   -2.6400    2.6120 n         1 MOL     -0.675079
    122 C40         1.3570   -2.1300    2.3200 c3        1 MOL      0.155400
    123 C41         1.8750   -2.4970    0.9360 c         1 MOL      0.222615
    124 O16         3.0220   -2.1170    0.7730 o         1 MOL     -0.453270
    125 C42         2.3550   -2.4340    3.4840 c3        1 MOL      0.116977
    126 O17         1.9040   -2.2840    4.7860 oh        1 MOL     -0.618549
    127 H57        -0.0350   -3.2600    3.4140 hn        1 MOL      0.321909
    128 H58         1.3420   -1.0400    2.3040 h1        1 MOL      0.219833
    129 H59         3.3160   -1.9530    3.3050 h1        1 MOL      0.077392
    130 H60         2.6560   -3.4890    3.4070 h1        1 MOL      0.077392
    131 H61         1.4370   -3.0810    5.0460 ho        1 MOL      0.396963
    132 N12         1.1210   -3.0360   -0.0540 n         1 MOL     -0.180092
    133 C43         1.5860   -3.1990   -1.4190 c3        1 MOL     -0.163074
    134 C44         1.4790   -1.8970   -2.2390 c         1 MOL      0.726062
    135 O18         0.5010   -1.1830   -2.2930 o         1 MOL     -0.538836
    136 C45         0.9040   -4.4560   -2.0960 c3        1 MOL     -0.417161
    137 H62         0.2480   -3.4880    0.1990 hn        1 MOL      0.229910
    138 H63         2.6590   -3.3700   -1.3130 h1        1 MOL      0.211025
    139 H64        -0.1800   -4.4980   -2.0180 hc        1 MOL      0.128429
    140 H65         1.2170   -4.6250   -3.1270 hc        1 MOL      0.128429
    141 H66         1.3310   -5.3030   -1.5500 hc        1 MOL      0.128429
    142 N13         2.5310   -1.4860   -2.9640 n         1 MOL     -0.796859
    143 C46         3.9660   -2.0090   -2.9670 c3        1 MOL      0.438343
    144 C47         4.1170   -3.4370   -3.2790 c         1 MOL      0.526699
    145 O19         3.6650   -3.9220   -4.2670 o         1 MOL     -0.589124
    146 C48         4.8260   -1.2800   -3.8960 c3        1 MOL     -0.185226
    147 H67         2.3800   -0.6650   -3.5240 hn        1 MOL      0.414514
    148 H68         4.3780   -1.8300   -1.9730 h1        1 MOL      0.065184
    149 H69         4.8810   -0.3030   -3.4140 hc        1 MOL      0.041177
    150 H70         5.8380   -1.6940   -3.9480 hc        1 MOL      0.041177
    151 H71         4.4000   -1.1210   -4.8810 hc        1 MOL      0.041177
    152 N14         4.9110   -4.1670   -2.5260 n         1 MOL     -0.485369
    153 C49         5.4930   -4.1010   -1.1940 c3        1 MOL     -0.421719
    154 C50         5.7470   -5.5210   -0.5930 c         1 MOL      0.656012
    155 O20         5.7160   -5.6470    0.6270 o         1 MOL     -0.529235
    156 C51         6.8180   -3.2390   -1.3350 c3        1 MOL     -0.028147
    157 C52         7.6330   -3.1560   -0.0360 c3        1 MOL     -0.250301
    158 C53         8.6210   -2.0500   -0.0400 c         1 MOL      0.748924
    159 O21         9.8110   -2.2930   -0.2010 o         1 MOL     -0.748184
    160 O22         8.1490   -0.9270    0.1780 o         1 MOL     -0.748184
    161 H72         5.2860   -4.9090   -3.0980 hn        1 MOL      0.303880
    162 H73         4.8310   -3.5430   -0.5370 h1        1 MOL      0.207565
    163 H74         6.4770   -2.2210   -1.5080 hc        1 MOL      0.051949
    164 H75         7.3580   -3.4110   -2.2670 hc        1 MOL      0.051949
    165 H76         8.1450   -4.1090    0.0640 hc        1 MOL      0.076364
    166 H77         7.0460   -2.9510    0.8580 hc        1 MOL      0.076364
    167 N15         5.9010   -6.5510   -1.4340 n         1 MOL     -0.321412
    168 C54         5.9640   -7.9650   -0.9810 c3        1 MOL     -0.211377
    169 H78         5.0320   -8.2270   -0.4800 h1        1 MOL      0.104139
    170 H79         6.1100   -8.6170   -1.8420 h1        1 MOL      0.104139
    171 H80         6.7960   -8.0880   -0.2870 h1        1 MOL      0.104139
    172 H81         5.7450   -6.4050   -2.4240 hn        1 MOL      0.259484
    173 Ca1        -1.8760    0.2840   -1.0830 Ca        1 MOL      1.845558
    174 O23        -3.7040   -0.5970   -2.7250 oh        1 MOL     -0.906546
    175 H82        -3.8430   -1.4580   -3.1170 ho        1 MOL      0.445420
    176 H83        -4.4660   -0.0890   -2.9940 ho        1 MOL      0.445420
    177 O24        -1.8650   -2.5230   -1.2610 oh        1 MOL     -0.906546
    178 H84        -1.9940   -2.9640   -2.0960 ho        1 MOL      0.445420
    179 H85        -1.4860   -3.1970   -0.6900 ho        1 MOL      0.445420
@<TRIPOS>BOND
     1    1    2 1   
     2    1    4 1   
     3    1    5 1   
     4    1    6 1   
     5    2    3 2   
     6    2    7 1   
     7    7    8 1   
     8    7   15 1   
     9    8    9 1   
    10    8   11 1   
    11    8   16 1   
    12    9   10 2   
    13    9   19 1   
    14   11   12 1   
    15   11   17 1   
    16   11   18 1   
    17   12   13 1   
    18   12   14 1   
    19   19   20 1   
    20   19   28 1   
    21   20   21 1   
    22   20   23 1   
    23   20   29 1   
    24   21   22 2   
    25   21   41 1   
    26   23   24 1   
    27   23   30 1   
    28   23   31 1   
    29   24   25 1   
    30   24   32 1   
    31   24   33 1   
    32   25   26 1   
    33   25   34 1   
    34   25   35 1   
    35   26   27 1   
    36   26   36 1   
    37   26   37 1   
    38   27   38 1   
    39   27   39 1   
    40   27   40 1   
    41   41   42 1   
    42   41   49 1   
    43   42   43 1   
    44   42   45 1   
    45   42   50 1   
    46   43   44 2   
    47   43   53 1   
    48   45   46 1   
    49   45   51 1   
    50   45   52 1   
    51   46   47 1   
    52   46   48 1   
    53   53   54 1   
    54   53   57 1   
    55   54   55 1   
    56   54   58 1   
    57   54   59 1   
    58   55   56 2   
    59   55   60 1   
    60   60   61 1   
    61   60   68 1   
    62   61   62 1   
    63   61   64 1   
    64   61   69 1   
    65   62   63 2   
    66   62   74 1   
    67   64   65 1   
    68   64   70 1   
    69   64   71 1   
    70   65   66 1   
    71   65   67 2   
    72   66   72 1   
    73   66   73 1   
    74   74   75 1   
    75   74   78 1   
    76   75   76 1   
    77   75   79 1   
    78   75   80 1   
    79   76   77 2   
    80   76   81 1   
    81   81   82 1   
    82   81   93 1   
    83   82   83 1   
    84   82   85 1   
    85   82   94 1   
    86   83   84 2   
    87   83  102 1   
    88   85   86 1   
    89   85   95 1   
    90   85   96 1   
    91   86   87 ar  
    92   86   88 ar  
    93   87   89 ar  
    94   87   97 1   
    95   88   90 ar  
    96   88   98 1   
    97   89   91 ar  
    98   89   99 1   
    99   90   91 ar  
   100   90  100 1   
   101   91   92 1   
   102   92  101 1   
   103  102  103 1   
   104  102  110 1   
   105  103  104 1   
   106  103  106 1   
   107  103  111 1   
   108  104  105 2   
   109  104  121 1   
   110  106  107 1   
   111  106  108 1   
   112  106  112 1   
   113  107  109 1   
   114  107  113 1   
   115  107  114 1   
   116  108  115 1   
   117  108  116 1   
   118  108  117 1   
   119  109  118 1   
   120  109  119 1   
   121  109  120 1   
   122  121  122 1   
   123  121  127 1   
   124  122  123 1   
   125  122  125 1   
   126  122  128 1   
   127  123  124 2   
   128  123  132 1   
   129  125  126 1   
   130  125  129 1   
   131  125  130 1   
   132  126  131 1   
   133  132  133 1   
   134  132  137 1   
   135  133  134 1   
   136  133  136 1   
   137  133  138 1   
   138  134  135 2   
   139  134  142 1   
   140  136  139 1   
   141  136  140 1   
   142  136  141 1   
   143  142  143 1   
   144  142  147 1   
   145  143  144 1   
   146  143  146 1   
   147  143  148 1   
   148  144  145 2   
   149  144  152 1   
   150  146  149 1   
   151  146  150 1   
   152  146  151 1   
   153  152  153 1   
   154  152  161 1   
   155  153  154 1   
   156  153  156 1   
   157  153  162 1   
   158  154  155 2   
   159  154  167 1   
   160  156  157 1   
   161  156  163 1   
   162  156  164 1   
   163  157  158 1   
   164  157  165 1   
   165  157  166 1   
   166  158  159 1   
   167  158  160 1   
   168  167  168 1   
   169  167  172 1   
   170  168  169 1   
   171  168  170 1   
   172  168  171 1   
   173  174  175 1   
   174  174  176 1   
   175  177  178 1   
   176  177  179 1   
@<TRIPOS>SUBSTRUCTURE
     1 MOL         1 TEMP              0 ****  ****    0 ROOT
