@<TRIPOS>MOLECULE
MOL
  195   189     1     0     0
SMALL
resp


@<TRIPOS>ATOM
      1 C1          2.2370    2.9980    2.9070 c3        1 MOL     -0.395774
      2 C2          1.3870    3.4750    1.7120 c         1 MOL      0.743430
      3 O1          0.5500    2.6800    1.2690 o         1 MOL     -0.506955
      4 H1          3.1620    2.5540    2.5410 hc        1 MOL      0.085404
      5 H2          2.4720    3.8470    3.5480 hc        1 MOL      0.085404
      6 H3          1.6780    2.2550    3.4770 hc        1 MOL      0.085404
      7 N1          1.6290    4.6630    1.1940 n         1 MOL     -0.668818
      8 C3          1.1870    5.2510   -0.0980 c3        1 MOL      0.178002
      9 C4         -0.3260    5.3820   -0.2200 c         1 MOL      0.665081
     10 O2         -0.9650    4.8200   -1.0630 o         1 MOL     -0.497519
     11 C5          1.9380    4.5440   -1.3050 c3        1 MOL     -0.796395
     12 C6          3.4650    4.4390   -1.1130 c         1 MOL      1.095386
     13 O3          4.0930    3.6590   -1.8200 o         1 MOL     -0.815140
     14 O4          4.1110    5.2730   -0.4090 o         1 MOL     -0.815140
     15 H4          2.2730    5.2670    1.6630 hn        1 MOL      0.310086
     16 H5          1.5260    6.2920   -0.0320 h1        1 MOL      0.067053
     17 H6          1.7850    5.0630   -2.2470 hc        1 MOL      0.242937
     18 H7          1.6870    3.4850   -1.2350 hc        1 MOL      0.242937
     19 N2         -0.9590    6.1580    0.7350 n         1 MOL     -0.623295
     20 C7         -2.4450    6.2310    0.9930 c3        1 MOL      0.080626
     21 C8         -3.2440    7.2340    0.1190 c         1 MOL      0.396210
     22 O5         -2.6390    8.2140   -0.3700 o         1 MOL     -0.585484
     23 C9         -2.5720    6.5990    2.5070 c3        1 MOL      0.043196
     24 C10        -2.2410    8.0700    2.8720 c3        1 MOL      0.155022
     25 C11        -1.8320    5.6140    3.4320 c3        1 MOL     -0.117439
     26 C12        -2.7850    8.5890    4.2180 c3        1 MOL     -0.281000
     27 H8         -0.3120    6.7190    1.2710 hn        1 MOL      0.294809
     28 H9         -2.9080    5.2500    0.8970 h1        1 MOL      0.112728
     29 H10        -3.6390    6.5580    2.7290 hc        1 MOL      0.047895
     30 H11        -2.7690    8.6700    2.1260 hc        1 MOL     -0.024456
     31 H12        -1.1900    8.3050    2.7170 hc        1 MOL     -0.024456
     32 H13        -2.1750    5.7300    4.4600 hc        1 MOL      0.017588
     33 H14        -1.9960    4.5800    3.1210 hc        1 MOL      0.017588
     34 H15        -0.7990    5.9380    3.4380 hc        1 MOL      0.017588
     35 H16        -2.2780    8.0770    5.0380 hc        1 MOL      0.059449
     36 H17        -2.6180    9.6550    4.3470 hc        1 MOL      0.059449
     37 H18        -3.8470    8.3810    4.1320 hc        1 MOL      0.059449
     38 N3         -4.4800    7.0340   -0.3060 n         1 MOL     -0.188727
     39 C13        -5.4980    6.0650    0.1990 c3        1 MOL     -0.045774
     40 C14        -5.1420    4.6210   -0.2190 c         1 MOL      0.506089
     41 O6         -5.4890    3.6490    0.4210 o         1 MOL     -0.521061
     42 C15        -6.8150    6.5900   -0.3610 c3        1 MOL     -0.127582
     43 C16        -8.0210    5.7840   -0.0820 c         1 MOL      0.716167
     44 O7         -8.6550    5.9580    0.9990 o         1 MOL     -0.723654
     45 O8         -8.4120    4.9910   -0.9610 o         1 MOL     -0.723654
     46 H19        -4.7940    7.7580   -0.9290 hn        1 MOL      0.210851
     47 H20        -5.5130    6.0870    1.2910 h1        1 MOL      0.035024
     48 H21        -6.8000    6.6180   -1.4550 hc        1 MOL      0.007879
     49 H22        -6.9790    7.5670    0.0930 hc        1 MOL      0.007879
     50 N4         -4.3710    4.4260   -1.2900 n         1 MOL     -0.293676
     51 C17        -3.9620    3.1150   -1.8190 c3        1 MOL     -0.024799
     52 C18        -5.0890    2.2380   -2.4040 c         1 MOL      0.492485
     53 O9         -6.0990    2.7570   -2.9060 o         1 MOL     -0.495105
     54 H23        -4.2030    5.2870   -1.8020 hn        1 MOL      0.206283
     55 H24        -3.5550    2.5130   -1.0120 h1        1 MOL      0.066102
     56 H25        -3.1410    3.1350   -2.5330 h1        1 MOL      0.066102
     57 N5         -4.8710    0.8900   -2.4220 n         1 MOL     -0.532552
     58 C19        -5.8240   -0.1270   -3.2230 c3        1 MOL      0.157255
     59 C20        -6.8880   -0.7200   -2.2860 c         1 MOL      0.427826
     60 O10        -7.6870   -1.5290   -2.6800 o         1 MOL     -0.563498
     61 C21        -5.0630   -1.2240   -4.0270 c3        1 MOL     -0.146690
     62 C22        -3.8550   -1.7990   -3.2190 c         1 MOL      0.767889
     63 O11        -4.2470   -2.5890   -2.3740 o         1 MOL     -0.716305
     64 O12        -2.6710   -1.3960   -3.3360 o         1 MOL     -0.716305
     65 H26        -4.0060    0.6030   -1.9810 hn        1 MOL      0.306242
     66 H27        -6.4480    0.4390   -3.9090 h1        1 MOL      0.070356
     67 H28        -4.5930   -0.7730   -4.8960 hc        1 MOL     -0.003483
     68 H29        -5.7370   -2.0290   -4.3160 hc        1 MOL     -0.003483
     69 N6         -6.8220   -0.4380   -0.9990 n         1 MOL     -0.127477
     70 C23        -7.5570   -0.9940    0.1080 c3        1 MOL     -0.435366
     71 C24        -7.2250   -2.4250    0.4610 c         1 MOL      0.562650
     72 O13        -7.6980   -2.8690    1.4670 o         1 MOL     -0.575105
     73 H30        -5.9970    0.0520   -0.6940 hn        1 MOL      0.222119
     74 H31        -8.6020   -1.0320   -0.2070 h1        1 MOL      0.179880
     75 H32        -7.3600   -0.3540    0.9670 h1        1 MOL      0.179880
     76 N7         -6.3640   -3.1510   -0.3070 n         1 MOL     -0.170018
     77 C25        -6.0960   -4.5930   -0.1450 c3        1 MOL      0.096194
     78 C26        -5.6220   -5.0770    1.2940 c         1 MOL      0.373331
     79 O14        -5.8760   -6.1840    1.7590 o         1 MOL     -0.515551
     80 C27        -7.2100   -5.5380   -0.6000 c3        1 MOL      0.157058
     81 C28        -7.5710   -5.2050   -2.0670 c3        1 MOL     -0.239393
     82 C29        -8.1480   -6.3630   -2.8700 c         1 MOL      0.599528
     83 N8         -9.2430   -6.0720   -3.6000 n         1 MOL     -0.783141
     84 O15        -7.7020   -7.5250   -2.8540 o         1 MOL     -0.561694
     85 H33        -5.7660   -2.6730   -0.9730 hn        1 MOL      0.101505
     86 H34        -5.2210   -4.6940   -0.7910 h1        1 MOL      0.075834
     87 H35        -8.0640   -5.5220    0.0840 hc        1 MOL     -0.027090
     88 H36        -6.7590   -6.5330   -0.5480 hc        1 MOL     -0.027090
     89 H37        -6.6870   -4.7900   -2.5380 hc        1 MOL      0.090924
     90 H38        -8.4260   -4.5360   -2.0930 hc        1 MOL      0.090924
     91 H39        -9.5970   -5.1280   -3.5520 hn        1 MOL      0.352684
     92 H40        -9.7070   -6.8550   -4.0170 hn        1 MOL      0.352684
     93 N9         -4.8950   -4.1990    1.9560 n         1 MOL     -0.172461
     94 C30        -4.2850   -4.3580    3.2910 c3        1 MOL     -0.177668
     95 C31        -2.7790   -4.0590    3.3430 c         1 MOL      0.598367
     96 O16        -2.1320   -4.1510    4.3770 o         1 MOL     -0.591959
     97 C32        -5.0050   -3.5530    4.3670 c3        1 MOL      0.392021
     98 C33        -5.1330   -2.0770    4.0440 c3        1 MOL     -0.504902
     99 C34        -6.4310   -4.1100    4.6890 c3        1 MOL     -0.504902
    100 H41        -4.9340   -3.2600    1.5780 hn        1 MOL      0.194997
    101 H42        -4.4260   -5.4140    3.5190 h1        1 MOL      0.119571
    102 H43        -4.5610   -3.7790    5.3400 hc        1 MOL     -0.042944
    103 H44        -5.7620   -1.8860    3.1750 hc        1 MOL      0.123881
    104 H45        -5.5180   -1.6180    4.9560 hc        1 MOL      0.123881
    105 H46        -4.1320   -1.7580    3.7430 hc        1 MOL      0.123881
    106 H47        -6.6870   -3.6470    5.6370 hc        1 MOL      0.123881
    107 H48        -7.1060   -3.7850    3.8950 hc        1 MOL      0.123881
    108 H49        -6.4270   -5.1960    4.7670 hc        1 MOL      0.123881
    109 N10        -2.0890   -3.7460    2.1900 n         1 MOL     -0.556016
    110 C35        -0.7340   -3.2010    2.1160 c3        1 MOL      0.624553
    111 C36        -0.0960   -3.5860    0.7060 c         1 MOL      0.346171
    112 O17        -0.7630   -4.3540   -0.0130 o         1 MOL     -0.503687
    113 C37        -0.5460   -1.7040    2.3610 c3        1 MOL     -0.370260
    114 C38         0.8410   -1.4180    2.8860 c         1 MOL      0.550513
    115 N11         0.9740   -1.4600    4.1530 n         1 MOL     -0.708154
    116 O18         1.8390   -1.2440    2.1900 o         1 MOL     -0.481877
    117 H50        -2.5670   -3.7220    1.3090 hn        1 MOL      0.199363
    118 H51        -0.1290   -3.8320    2.7690 h1        1 MOL     -0.045643
    119 H52        -1.2420   -1.4780    3.1700 hc        1 MOL      0.097452
    120 H53        -0.6330   -1.2310    1.3890 hc        1 MOL      0.097452
    121 H54         0.2160   -1.7410    4.7560 hn        1 MOL      0.339723
    122 H55         1.7340   -0.9510    4.5790 hn        1 MOL      0.339723
    123 N12         1.1440   -3.2670    0.3750 n         1 MOL     -0.361535
    124 C39         1.8250   -3.8520   -0.7690 c3        1 MOL     -0.005609
    125 C40         3.3300   -3.7850   -0.3720 c         1 MOL      0.723609
    126 O19         3.8290   -2.9270    0.4160 o         1 MOL     -0.645464
    127 C41         1.6280   -2.9580   -2.0180 c3        1 MOL     -0.095001
    128 C42         2.5530   -1.7260   -2.1970 ca        1 MOL      0.001845
    129 C43         2.2490   -0.4990   -1.6050 ca        1 MOL     -0.138688
    130 C44         3.7790   -1.9120   -2.8800 ca        1 MOL     -0.138688
    131 C45         3.0740    0.5710   -1.7270 ca        1 MOL     -0.166288
    132 C46         4.6570   -0.8710   -2.9490 ca        1 MOL     -0.166288
    133 C47         4.2810    0.4040   -2.3900 ca        1 MOL      0.181759
    134 O20         5.1620    1.4500   -2.5510 oh        1 MOL     -0.549407
    135 H56         1.7100   -2.7780    1.0440 hn        1 MOL      0.227468
    136 H57         1.4210   -4.8510   -0.9160 h1        1 MOL      0.090207
    137 H58         0.5600   -2.7560   -1.9400 hc        1 MOL      0.067497
    138 H59         1.6860   -3.5730   -2.9160 hc        1 MOL      0.067497
    139 H60         1.4500   -0.3010   -0.9000 ha        1 MOL      0.123271
    140 H61         4.0770   -2.8350   -3.3710 ha        1 MOL      0.123271
    141 H62         2.6740    1.4540   -1.2510 ha        1 MOL      0.118478
    142 H63         5.6250   -0.9580   -3.4300 ha        1 MOL      0.118478
    143 H64         4.8070    2.3060   -2.2980 ho        1 MOL      0.485376
    144 N13         4.0270   -4.7080   -0.8600 n         1 MOL     -0.563867
    145 C48         5.4220   -4.8990   -0.5210 c3        1 MOL      0.112641
    146 C49         6.3680   -4.3740   -1.7090 c         1 MOL      0.369588
    147 O21         6.5710   -4.9440   -2.7940 o         1 MOL     -0.536089
    148 C50         5.8300   -6.3760   -0.2590 c3        1 MOL     -0.050166
    149 C51         5.2260   -6.9410    0.9730 c3        1 MOL     -0.172838
    150 C52         5.5310   -8.4570    1.0080 c         1 MOL      0.768629
    151 O22         4.7930   -9.2470    0.3590 o         1 MOL     -0.724803
    152 O23         6.4880   -8.8700    1.5770 o         1 MOL     -0.724803
    153 H65         3.8140   -5.1360   -1.7540 hn        1 MOL      0.329349
    154 H66         5.6240   -4.4550    0.4560 h1        1 MOL      0.093694
    155 H67         6.9200   -6.4820   -0.2740 hc        1 MOL      0.045621
    156 H68         5.5100   -6.9800   -1.1030 hc        1 MOL      0.045621
    157 H69         4.1430   -7.0300    0.9030 hc        1 MOL      0.006798
    158 H70         5.4020   -6.4730    1.9390 hc        1 MOL      0.006798
    159 N14         7.0060   -3.2190   -1.5400 n         1 MOL     -0.239415
    160 C53         6.9150   -2.2770   -0.3940 c3        1 MOL     -0.442586
    161 C54         7.4350   -2.7940    0.9680 c         1 MOL      0.674293
    162 O24         8.2280   -3.7310    1.1150 o         1 MOL     -0.565437
    163 C55         7.7530   -1.0800   -0.8190 c3        1 MOL      0.489264
    164 C56         7.7960    0.1590    0.0690 c3        1 MOL     -0.328705
    165 C57         8.3690    1.3680   -0.6710 c         1 MOL      0.905370
    166 O25         9.5000    1.6900   -0.4340 o         1 MOL     -0.778151
    167 O26         7.6180    2.0010   -1.3300 o         1 MOL     -0.778151
    168 H71         7.5870   -2.9220   -2.3130 hn        1 MOL      0.240369
    169 H72         5.8880   -1.9730   -0.1840 h1        1 MOL      0.217450
    170 H73         7.2960   -0.6520   -1.7050 hc        1 MOL     -0.075698
    171 H74         8.7410   -1.4670   -1.0500 hc        1 MOL     -0.075698
    172 H75         8.3620    0.0800    0.9980 hc        1 MOL     -0.010358
    173 H76         6.7850    0.5110    0.2800 hc        1 MOL     -0.010358
    174 N15         6.9520   -2.1600    2.0330 n         1 MOL     -0.336502
    175 C58         7.4220   -2.3940    3.4640 c3        1 MOL     -0.039318
    176 H77         8.4770   -2.6720    3.4590 h1        1 MOL      0.050470
    177 H78         7.2910   -1.4810    4.0440 h1        1 MOL      0.050470
    178 H79         6.8380   -3.1970    3.9120 h1        1 MOL      0.050470
    179 H80         6.4890   -1.2840    1.8470 hn        1 MOL      0.246629
    180 Ca1         6.4370    4.0030   -0.4770 Ca        1 MOL      1.747996
    181 O27         8.1670    3.3020    1.6070 oh        1 MOL     -0.889638
    182 H81         8.8920    2.9640    1.0690 ho        1 MOL      0.420290
    183 H82         8.3080    2.8990    2.4720 ho        1 MOL      0.420290
    184 O28         7.2260    6.5700   -0.5330 oh        1 MOL     -0.889638
    185 H83         8.1000    6.6520   -0.9180 ho        1 MOL      0.420290
    186 H84         6.8870    7.4640   -0.5360 ho        1 MOL      0.420290
    187 O29         5.3760    2.2970    1.2000 oh        1 MOL     -0.889638
    188 H85         5.9560    2.2800    1.9620 ho        1 MOL      0.420290
    189 H86         4.6020    1.8020    1.4840 ho        1 MOL      0.420290
    190 O30         8.9760    4.4820   -1.3090 oh        1 MOL     -0.889638
    191 H87         9.7380    5.0190   -1.0970 ho        1 MOL      0.420290
    192 H88         9.3010    3.5870   -1.2540 ho        1 MOL      0.420290
    193 O31         6.6280    4.9100   -3.0730 oh        1 MOL     -0.889638
    194 H89         7.2730    4.8290   -3.7730 ho        1 MOL      0.420290
    195 H90         5.9290    5.4340   -3.4620 ho        1 MOL      0.420290
@<TRIPOS>BOND
     1    1    2 1   
     2    1    4 1   
     3    1    5 1   
     4    1    6 1   
     5    2    3 2   
     6    2    7 1   
     7    7    8 1   
     8    7   15 1   
     9    8    9 1   
    10    8   11 1   
    11    8   16 1   
    12    9   10 2   
    13    9   19 1   
    14   11   12 1   
    15   11   17 1   
    16   11   18 1   
    17   12   13 1   
    18   12   14 1   
    19   19   20 1   
    20   19   27 1   
    21   20   21 1   
    22   20   23 1   
    23   20   28 1   
    24   21   22 2   
    25   21   38 1   
    26   23   24 1   
    27   23   25 1   
    28   23   29 1   
    29   24   26 1   
    30   24   30 1   
    31   24   31 1   
    32   25   32 1   
    33   25   33 1   
    34   25   34 1   
    35   26   35 1   
    36   26   36 1   
    37   26   37 1   
    38   38   39 1   
    39   38   46 1   
    40   39   40 1   
    41   39   42 1   
    42   39   47 1   
    43   40   41 2   
    44   40   50 1   
    45   42   43 1   
    46   42   48 1   
    47   42   49 1   
    48   43   44 1   
    49   43   45 1   
    50   50   51 1   
    51   50   54 1   
    52   51   52 1   
    53   51   55 1   
    54   51   56 1   
    55   52   53 2   
    56   52   57 1   
    57   57   58 1   
    58   57   65 1   
    59   58   59 1   
    60   58   61 1   
    61   58   66 1   
    62   59   60 2   
    63   59   69 1   
    64   61   62 1   
    65   61   67 1   
    66   61   68 1   
    67   62   63 1   
    68   62   64 1   
    69   69   70 1   
    70   69   73 1   
    71   70   71 1   
    72   70   74 1   
    73   70   75 1   
    74   71   72 2   
    75   71   76 1   
    76   76   77 1   
    77   76   85 1   
    78   77   78 1   
    79   77   80 1   
    80   77   86 1   
    81   78   79 2   
    82   78   93 1   
    83   80   81 1   
    84   80   87 1   
    85   80   88 1   
    86   81   82 1   
    87   81   89 1   
    88   81   90 1   
    89   82   83 1   
    90   82   84 2   
    91   83   91 1   
    92   83   92 1   
    93   93   94 1   
    94   93  100 1   
    95   94   95 1   
    96   94   97 1   
    97   94  101 1   
    98   95   96 2   
    99   95  109 1   
   100   97   98 1   
   101   97   99 1   
   102   97  102 1   
   103   98  103 1   
   104   98  104 1   
   105   98  105 1   
   106   99  106 1   
   107   99  107 1   
   108   99  108 1   
   109  109  110 1   
   110  109  117 1   
   111  110  111 1   
   112  110  113 1   
   113  110  118 1   
   114  111  112 2   
   115  111  123 1   
   116  113  114 1   
   117  113  119 1   
   118  113  120 1   
   119  114  115 1   
   120  114  116 2   
   121  115  121 1   
   122  115  122 1   
   123  123  124 1   
   124  123  135 1   
   125  124  125 1   
   126  124  127 1   
   127  124  136 1   
   128  125  126 2   
   129  125  144 1   
   130  127  128 1   
   131  127  137 1   
   132  127  138 1   
   133  128  129 ar  
   134  128  130 ar  
   135  129  131 ar  
   136  129  139 1   
   137  130  132 ar  
   138  130  140 1   
   139  131  133 ar  
   140  131  141 1   
   141  132  133 ar  
   142  132  142 1   
   143  133  134 1   
   144  134  143 1   
   145  144  145 1   
   146  144  153 1   
   147  145  146 1   
   148  145  148 1   
   149  145  154 1   
   150  146  147 2   
   151  146  159 1   
   152  148  149 1   
   153  148  155 1   
   154  148  156 1   
   155  149  150 1   
   156  149  157 1   
   157  149  158 1   
   158  150  151 1   
   159  150  152 1   
   160  159  160 1   
   161  159  168 1   
   162  160  161 1   
   163  160  163 1   
   164  160  169 1   
   165  161  162 2   
   166  161  174 1   
   167  163  164 1   
   168  163  170 1   
   169  163  171 1   
   170  164  165 1   
   171  164  172 1   
   172  164  173 1   
   173  165  166 1   
   174  165  167 1   
   175  174  175 1   
   176  174  179 1   
   177  175  176 1   
   178  175  177 1   
   179  175  178 1   
   180  181  182 1   
   181  181  183 1   
   182  184  185 1   
   183  184  186 1   
   184  187  188 1   
   185  187  189 1   
   186  190  191 1   
   187  190  192 1   
   188  193  194 1   
   189  193  195 1   
@<TRIPOS>SUBSTRUCTURE
     1 MOL         1 TEMP              0 ****  ****    0 ROOT
