@<TRIPOS>MOLECULE
MOL
  189   185     1     0     0
SMALL
resp


@<TRIPOS>ATOM
      1 C1          4.1110    4.0760   -3.5480 c3        1 MOL     -0.311861
      2 C2          4.8450    3.4890   -2.3050 c         1 MOL      0.795095
      3 O1          4.1830    3.0810   -1.3280 o         1 MOL     -0.727679
      4 H1          4.6880    4.9090   -3.9510 hc        1 MOL      0.083731
      5 H2          4.0110    3.3030   -4.3100 hc        1 MOL      0.083731
      6 H3          3.1230    4.4270   -3.2540 hc        1 MOL      0.083731
      7 N1          6.1850    3.1680   -2.3790 n         1 MOL     -0.736345
      8 C3          6.9030    2.0340   -1.7190 c3        1 MOL      0.425943
      9 C4          5.9890    0.8090   -1.4940 c         1 MOL      0.252264
     10 O2          5.6270    0.3960   -0.3970 o         1 MOL     -0.582507
     11 C5          7.7370    2.4710   -0.5390 c3        1 MOL     -0.038641
     12 C6          7.1360    3.5880    0.3710 c         1 MOL      0.674785
     13 O3          6.0260    3.3500    0.9400 o         1 MOL     -0.697686
     14 O4          7.6820    4.6350    0.5580 o         1 MOL     -0.697686
     15 H4          6.7390    3.6270   -3.0810 hn        1 MOL      0.312229
     16 H5          7.6540    1.6870   -2.4280 h1        1 MOL     -0.017112
     17 H6          8.6470    2.8540   -1.0150 hc        1 MOL     -0.017116
     18 H7          8.0640    1.5760   -0.0160 hc        1 MOL     -0.017116
     19 N2          5.6830    0.1980   -2.6510 n         1 MOL     -0.305378
     20 C7          5.0050   -1.0860   -2.8810 c3        1 MOL     -0.001519
     21 C8          5.7370   -2.2470   -2.3130 c         1 MOL      0.338923
     22 O5          6.0240   -3.1630   -3.1270 o         1 MOL     -0.569699
     23 C9          3.4710   -1.0560   -2.7180 c3        1 MOL      0.272251
     24 C10         2.7640   -2.3770   -3.1250 c3        1 MOL     -0.208219
     25 C11         3.0230    0.2060   -3.4810 c3        1 MOL     -0.232664
     26 C12         2.7350   -2.6420   -4.6460 c3        1 MOL     -0.010217
     27 H8          5.9990    0.7250   -3.4530 hn        1 MOL      0.206668
     28 H9          5.1350   -1.1560   -3.9580 h1        1 MOL      0.063895
     29 H10         3.1920   -0.8470   -1.6870 hc        1 MOL     -0.034525
     30 H11         1.7790   -2.3650   -2.6540 hc        1 MOL      0.099204
     31 H12         3.3510   -3.1150   -2.5830 hc        1 MOL      0.099204
     32 H13         3.3860    1.1670   -3.1240 hc        1 MOL      0.042536
     33 H14         3.3370    0.0230   -4.5090 hc        1 MOL      0.042536
     34 H15         1.9380    0.2970   -3.4640 hc        1 MOL      0.042536
     35 H16         3.6740   -2.3860   -5.1410 hc        1 MOL     -0.004141
     36 H17         2.5460   -3.6830   -4.9140 hc        1 MOL     -0.004141
     37 H18         1.9880   -2.0520   -5.1600 hc        1 MOL     -0.004141
     38 N3          5.8550   -2.3610   -1.0120 n         1 MOL      0.031707
     39 C13         6.6160   -3.3580   -0.3330 c3        1 MOL     -0.033105
     40 C14         5.9590   -4.7460   -0.2180 c         1 MOL      0.491342
     41 O6          6.5670   -5.7960   -0.4660 o         1 MOL     -0.568170
     42 C15         6.9830   -2.9030    1.0740 c3        1 MOL     -0.110265
     43 C16         7.7650   -1.5830    1.1260 c         1 MOL      0.713916
     44 O7          8.6020   -1.4050    0.2550 o         1 MOL     -0.698081
     45 O8          7.4900   -0.7060    1.9910 o         1 MOL     -0.698081
     46 H19         5.6010   -1.6020   -0.3890 hn        1 MOL      0.239684
     47 H20         7.5610   -3.5480   -0.8320 h1        1 MOL      0.056431
     48 H21         7.6950   -3.6040    1.5160 hc        1 MOL      0.024671
     49 H22         6.2010   -2.8830    1.8290 hc        1 MOL      0.024671
     50 N4          4.6830   -4.8780    0.2180 n         1 MOL     -0.433320
     51 C17         3.6910   -3.8440    0.5100 c3        1 MOL      0.068221
     52 C18         2.6770   -4.3640    1.5000 c         1 MOL      0.530032
     53 O9          2.3750   -5.5400    1.5970 o         1 MOL     -0.586940
     54 H23         4.3210   -5.8100    0.3650 hn        1 MOL      0.265717
     55 H24         3.2120   -3.4350   -0.3890 h1        1 MOL     -0.003320
     56 H25         4.2960   -2.9900    0.8170 h1        1 MOL     -0.003320
     57 N5          2.0410   -3.6080    2.3890 n         1 MOL     -0.349470
     58 C19         2.3320   -2.2380    2.8320 c3        1 MOL      0.176107
     59 C20         2.2850   -1.1640    1.6960 c         1 MOL     -0.009080
     60 O10         3.2780   -0.5430    1.3520 o         1 MOL     -0.368525
     61 C21         3.6200   -2.3160    3.7050 c3        1 MOL     -0.259851
     62 C22         3.8380   -1.1150    4.5490 c         1 MOL      0.680032
     63 O11         4.9920   -0.8620    5.0440 o         1 MOL     -0.691009
     64 O12         2.9300   -0.2540    4.6630 o         1 MOL     -0.691009
     65 H26         1.3020   -3.9680    2.9710 hn        1 MOL      0.233871
     66 H27         1.5540   -1.9090    3.5140 h1        1 MOL      0.045208
     67 H28         4.4560   -2.4510    3.0170 hc        1 MOL      0.072053
     68 H29         3.5340   -3.1750    4.3760 hc        1 MOL      0.072053
     69 N6          1.1620   -0.8680    1.1350 n         1 MOL      0.049365
     70 C23        -0.1820   -1.3730    1.2410 c3        1 MOL     -0.049881
     71 C24        -0.4970   -2.5220    0.3790 c         1 MOL      0.402491
     72 O13         0.2760   -2.7370   -0.6100 o         1 MOL     -0.462128
     73 H30         1.2170   -0.2120    0.3750 hn        1 MOL      0.152066
     74 H31        -0.7610   -0.4890    0.9760 h1        1 MOL      0.011231
     75 H32        -0.4880   -1.6680    2.2450 h1        1 MOL      0.011231
     76 N7         -1.6310   -3.1700    0.6130 n         1 MOL     -0.273524
     77 C25        -2.0340   -4.3740   -0.0120 c3        1 MOL     -0.232378
     78 C26        -2.5680   -4.1710   -1.4710 c         1 MOL      0.438602
     79 O14        -2.6200   -5.1480   -2.2350 o         1 MOL     -0.461745
     80 C27        -3.0990   -5.1500    0.8030 c3        1 MOL      0.325758
     81 C28        -2.7250   -5.5660    2.2110 c3        1 MOL     -0.338967
     82 C29        -4.0490   -5.9560    2.9570 c         1 MOL      0.677963
     83 N8         -4.0610   -6.2640    4.2640 n         1 MOL     -0.761883
     84 O15        -5.1470   -6.0670    2.4180 o         1 MOL     -0.528383
     85 H33        -2.2970   -2.7090    1.2240 hn        1 MOL      0.259983
     86 H34        -1.1630   -5.0270    0.0520 h1        1 MOL      0.168553
     87 H35        -3.4060   -6.0200    0.2220 hc        1 MOL     -0.023491
     88 H36        -3.9370   -4.4730    0.8840 hc        1 MOL     -0.023491
     89 H37        -2.3340   -4.7000    2.7400 hc        1 MOL      0.082656
     90 H38        -2.0350   -6.4110    2.1970 hc        1 MOL      0.082656
     91 H39        -3.1840   -6.4290    4.7440 hn        1 MOL      0.330557
     92 H40        -4.7690   -6.9400    4.5100 hn        1 MOL      0.330557
     93 N9         -3.0930   -2.9240   -1.8090 n         1 MOL     -0.321447
     94 C30        -3.5240   -2.6500   -3.1840 c3        1 MOL     -0.190617
     95 C31        -5.0410   -2.3440   -3.2760 c         1 MOL      0.706232
     96 O16        -5.6630   -2.6980   -4.2560 o         1 MOL     -0.585996
     97 C32        -2.7880   -1.4800   -3.9170 c3        1 MOL      0.190506
     98 C33        -1.2740   -1.8990   -4.0320 c3        1 MOL     -0.314469
     99 C34        -2.9270   -0.1080   -3.2620 c3        1 MOL     -0.314469
    100 H41        -3.0770   -2.2080   -1.1000 hn        1 MOL      0.242026
    101 H42        -3.4700   -3.5800   -3.7420 h1        1 MOL      0.127265
    102 H43        -3.1790   -1.3520   -4.9180 hc        1 MOL      0.012370
    103 H44        -0.8100   -1.9980   -3.0530 hc        1 MOL      0.079547
    104 H45        -1.2290   -2.8640   -4.5380 hc        1 MOL      0.079547
    105 H46        -0.8230   -1.1070   -4.6510 hc        1 MOL      0.079547
    106 H47        -2.2480    0.5230   -3.8260 hc        1 MOL      0.079547
    107 H48        -4.0140    0.0110   -3.2870 hc        1 MOL      0.079547
    108 H49        -2.5110   -0.0680   -2.2610 hc        1 MOL      0.079547
    109 N10        -5.6050   -1.7780   -2.1770 n         1 MOL     -0.449514
    110 C35        -6.9600   -1.3770   -1.9930 c3        1 MOL      0.160214
    111 C36        -7.1750    0.1450   -1.5350 c         1 MOL      0.504269
    112 O17        -8.1880    0.7020   -1.8690 o         1 MOL     -0.546684
    113 C37        -7.7420   -2.3570   -1.0580 c3        1 MOL     -0.494249
    114 C38        -7.8930   -3.7310   -1.7420 c         1 MOL      0.645410
    115 N11        -8.3710   -3.7950   -2.9560 n         1 MOL     -0.658756
    116 O18        -7.7110   -4.7600   -1.0920 o         1 MOL     -0.551718
    117 H50        -4.9280   -1.5680   -1.4620 hn        1 MOL      0.235584
    118 H51        -7.4900   -1.4180   -2.9370 h1        1 MOL      0.041728
    119 H52        -8.6850   -1.8000   -1.0180 hc        1 MOL      0.146064
    120 H53        -7.3350   -2.5180   -0.0580 hc        1 MOL      0.146064
    121 H54        -8.6220   -2.9600   -3.4580 hn        1 MOL      0.328390
    122 H55        -8.7350   -4.6910   -3.2450 hn        1 MOL      0.328390
    123 N12        -6.2920    0.7530   -0.7930 n         1 MOL     -0.374884
    124 C39        -6.3850    2.2360   -0.3710 c3        1 MOL      0.116767
    125 C40        -5.1070    2.9410    0.0290 c         1 MOL      0.305941
    126 O19        -4.0920    2.3850    0.3730 o         1 MOL     -0.458891
    127 C41        -7.2900    2.3010    0.8640 c3        1 MOL     -0.407721
    128 C42        -6.9590    1.3040    1.9170 ca        1 MOL      0.186854
    129 C43        -7.6730    0.0430    1.9940 ca        1 MOL     -0.220648
    130 C44        -5.8860    1.5080    2.7690 ca        1 MOL     -0.220648
    131 C45        -7.2040   -0.9630    2.8660 ca        1 MOL     -0.218796
    132 C46        -5.5290    0.4880    3.6570 ca        1 MOL     -0.218796
    133 C47        -6.1900   -0.7610    3.7370 ca        1 MOL      0.310971
    134 O20        -5.8150   -1.7880    4.5420 oh        1 MOL     -0.509122
    135 H56        -5.5490    0.1870   -0.4110 hn        1 MOL      0.269056
    136 H57        -6.6770    2.8020   -1.2610 h1        1 MOL      0.090346
    137 H58        -8.2920    2.0650    0.4980 hc        1 MOL      0.135265
    138 H59        -7.3020    3.3070    1.2730 hc        1 MOL      0.135265
    139 H60        -8.4620   -0.1610    1.2840 ha        1 MOL      0.159198
    140 H61        -5.2840    2.4020    2.7120 ha        1 MOL      0.159198
    141 H62        -7.6280   -1.9520    2.7610 ha        1 MOL      0.139709
    142 H63        -4.7620    0.6660    4.3920 ha        1 MOL      0.139709
    143 H64        -4.9740   -1.5870    4.9620 ho        1 MOL      0.386612
    144 N13        -5.1330    4.2760   -0.0280 n         1 MOL     -0.451701
    145 C48        -4.1660    5.1870    0.5600 c3        1 MOL      0.200017
    146 C49        -2.8460    5.2840   -0.1950 c         1 MOL      0.473351
    147 O21        -2.3620    6.4230   -0.3360 o         1 MOL     -0.534493
    148 C50        -3.8330    4.9040    2.0600 c3        1 MOL     -0.348875
    149 C51        -2.9500    6.0880    2.6290 c3        1 MOL     -0.193797
    150 C52        -3.2240    6.4230    4.0990 c         1 MOL      0.660305
    151 O22        -2.6250    5.7230    4.9920 o         1 MOL     -0.732548
    152 O23        -3.9930    7.4230    4.3410 o         1 MOL     -0.732548
    153 H65        -5.9150    4.6800   -0.5200 hn        1 MOL      0.282732
    154 H66        -4.7400    6.1100    0.4440 h1        1 MOL      0.046383
    155 H67        -3.2560    3.9910    2.1850 hc        1 MOL      0.175605
    156 H68        -4.7520    5.0730    2.6170 hc        1 MOL      0.175605
    157 H69        -3.1900    6.9890    2.0620 hc        1 MOL      0.065037
    158 H70        -1.8780    5.8840    2.5570 hc        1 MOL      0.065037
    159 N14        -2.2400    4.2180   -0.7440 n         1 MOL     -0.377180
    160 C53        -1.0700    4.2250   -1.6760 c3        1 MOL     -0.252379
    161 C54        -1.2220    5.0570   -2.8790 c         1 MOL      0.575963
    162 O24        -0.3180    5.1760   -3.7170 o         1 MOL     -0.563521
    163 C55        -0.6060    2.8510   -2.1140 c3        1 MOL     -0.046732
    164 C56        -0.2080    2.0200   -0.8240 c3        1 MOL      0.345481
    165 C57         1.2330    2.2700   -0.3890 c         1 MOL      0.564180
    166 O25         2.0620    1.3350   -0.4090 o         1 MOL     -0.625712
    167 O26         1.5570    3.2670    0.3260 o         1 MOL     -0.625712
    168 H71        -2.5730    3.2990   -0.4710 hn        1 MOL      0.300309
    169 H72        -0.3870    4.6770   -0.9600 h1        1 MOL      0.169396
    170 H73         0.2110    2.8980   -2.8360 hc        1 MOL      0.028674
    171 H74        -1.4380    2.3610   -2.6150 hc        1 MOL      0.028674
    172 H75        -0.2640    0.9710   -1.0900 hc        1 MOL     -0.094990
    173 H76        -0.9360    2.1570   -0.0200 hc        1 MOL     -0.094990
    174 N15        -2.4010    5.6090   -3.1490 n         1 MOL     -0.175091
    175 C58        -2.8470    6.5210   -4.2020 c3        1 MOL     -0.273560
    176 H77        -2.1290    7.3330   -4.3080 h1        1 MOL      0.108855
    177 H78        -2.9230    5.9790   -5.1450 h1        1 MOL      0.108855
    178 H79        -3.8220    6.9310   -3.9390 h1        1 MOL      0.108855
    179 H80        -3.0920    5.4530   -2.4300 hn        1 MOL      0.143842
    180 Ca1         3.9090    2.0700    1.0020 Ca        1 MOL      1.788310
    181 O27         4.0340    4.0990    2.8280 oh        1 MOL     -0.880424
    182 H81         3.5910    4.6710    3.4540 ho        1 MOL      0.414923
    183 H82         4.9650    4.2230    3.0160 ho        1 MOL      0.414923
    184 O28         5.6540    0.9750    2.8810 oh        1 MOL     -0.880424
    185 H83         5.3940    0.4480    3.6450 ho        1 MOL      0.414923
    186 H84         6.4420    0.5330    2.5550 ho        1 MOL      0.414923
    187 O29         2.0380    1.7630    3.1150 oh        1 MOL     -0.880424
    188 H85         2.3500    1.0650    3.6940 ho        1 MOL      0.414923
    189 H86         1.3290    2.1830    3.6030 ho        1 MOL      0.414923
@<TRIPOS>BOND
     1    1    2 1   
     2    1    4 1   
     3    1    5 1   
     4    1    6 1   
     5    2    3 2   
     6    2    7 1   
     7    7    8 1   
     8    7   15 1   
     9    8    9 1   
    10    8   11 1   
    11    8   16 1   
    12    9   10 2   
    13    9   19 1   
    14   11   12 1   
    15   11   17 1   
    16   11   18 1   
    17   12   13 1   
    18   12   14 1   
    19   19   20 1   
    20   19   27 1   
    21   20   21 1   
    22   20   23 1   
    23   20   28 1   
    24   21   22 2   
    25   21   38 1   
    26   23   24 1   
    27   23   25 1   
    28   23   29 1   
    29   24   26 1   
    30   24   30 1   
    31   24   31 1   
    32   25   32 1   
    33   25   33 1   
    34   25   34 1   
    35   26   35 1   
    36   26   36 1   
    37   26   37 1   
    38   38   39 1   
    39   38   46 1   
    40   39   40 1   
    41   39   42 1   
    42   39   47 1   
    43   40   41 2   
    44   40   50 1   
    45   42   43 1   
    46   42   48 1   
    47   42   49 1   
    48   43   44 1   
    49   43   45 1   
    50   50   51 1   
    51   50   54 1   
    52   51   52 1   
    53   51   55 1   
    54   51   56 1   
    55   52   53 2   
    56   52   57 1   
    57   57   58 1   
    58   57   65 1   
    59   58   59 1   
    60   58   61 1   
    61   58   66 1   
    62   59   60 2   
    63   59   69 1   
    64   61   62 1   
    65   61   67 1   
    66   61   68 1   
    67   62   63 1   
    68   62   64 1   
    69   69   70 1   
    70   69   73 1   
    71   70   71 1   
    72   70   74 1   
    73   70   75 1   
    74   71   72 2   
    75   71   76 1   
    76   76   77 1   
    77   76   85 1   
    78   77   78 1   
    79   77   80 1   
    80   77   86 1   
    81   78   79 2   
    82   78   93 1   
    83   80   81 1   
    84   80   87 1   
    85   80   88 1   
    86   81   82 1   
    87   81   89 1   
    88   81   90 1   
    89   82   83 1   
    90   82   84 2   
    91   83   91 1   
    92   83   92 1   
    93   93   94 1   
    94   93  100 1   
    95   94   95 1   
    96   94   97 1   
    97   94  101 1   
    98   95   96 2   
    99   95  109 1   
   100   97   98 1   
   101   97   99 1   
   102   97  102 1   
   103   98  103 1   
   104   98  104 1   
   105   98  105 1   
   106   99  106 1   
   107   99  107 1   
   108   99  108 1   
   109  109  110 1   
   110  109  117 1   
   111  110  111 1   
   112  110  113 1   
   113  110  118 1   
   114  111  112 2   
   115  111  123 1   
   116  113  114 1   
   117  113  119 1   
   118  113  120 1   
   119  114  115 1   
   120  114  116 2   
   121  115  121 1   
   122  115  122 1   
   123  123  124 1   
   124  123  135 1   
   125  124  125 1   
   126  124  127 1   
   127  124  136 1   
   128  125  126 2   
   129  125  144 1   
   130  127  128 1   
   131  127  137 1   
   132  127  138 1   
   133  128  129 ar  
   134  128  130 ar  
   135  129  131 ar  
   136  129  139 1   
   137  130  132 ar  
   138  130  140 1   
   139  131  133 ar  
   140  131  141 1   
   141  132  133 ar  
   142  132  142 1   
   143  133  134 1   
   144  134  143 1   
   145  144  145 1   
   146  144  153 1   
   147  145  146 1   
   148  145  148 1   
   149  145  154 1   
   150  146  147 2   
   151  146  159 1   
   152  148  149 1   
   153  148  155 1   
   154  148  156 1   
   155  149  150 1   
   156  149  157 1   
   157  149  158 1   
   158  150  151 1   
   159  150  152 1   
   160  159  160 1   
   161  159  168 1   
   162  160  161 1   
   163  160  163 1   
   164  160  169 1   
   165  161  162 2   
   166  161  174 1   
   167  163  164 1   
   168  163  170 1   
   169  163  171 1   
   170  164  165 1   
   171  164  172 1   
   172  164  173 1   
   173  165  166 1   
   174  165  167 1   
   175  174  175 1   
   176  174  179 1   
   177  175  176 1   
   178  175  177 1   
   179  175  178 1   
   180  181  182 1   
   181  181  183 1   
   182  184  185 1   
   183  184  186 1   
   184  187  188 1   
   185  187  189 1   
@<TRIPOS>SUBSTRUCTURE
     1 MOL         1 TEMP              0 ****  ****    0 ROOT
