@<TRIPOS>MOLECULE
MOL
  195   189     1     0     0
SMALL
resp


@<TRIPOS>ATOM
      1 C1         -4.6740   -5.2160    0.5250 c3        1 MOL     -0.407046
      2 C2         -3.4430   -4.7190   -0.1880 c         1 MOL      0.476235
      3 O1         -3.0080   -3.6380    0.1050 o         1 MOL     -0.355273
      4 H1         -5.5040   -4.5350    0.3340 hc        1 MOL      0.095943
      5 H2         -4.9290   -6.2100    0.1610 hc        1 MOL      0.095943
      6 H3         -4.4800   -5.2610    1.5970 hc        1 MOL      0.095943
      7 N1         -2.8210   -5.5710   -1.0330 n         1 MOL     -0.477736
      8 C3         -1.6450   -5.1770   -1.8300 c3        1 MOL      0.030992
      9 C4         -0.4070   -4.7160   -1.0410 c         1 MOL      0.691258
     10 O2          0.2650   -3.8390   -1.5150 o         1 MOL     -0.575107
     11 C5         -1.9710   -4.3050   -3.0820 c3        1 MOL     -0.431914
     12 C6         -3.1430   -4.6710   -3.9510 c         1 MOL      0.668263
     13 O3         -2.9140   -5.4390   -4.9690 o         1 MOL     -0.675665
     14 O4         -4.2930   -4.2320   -3.6030 o         1 MOL     -0.675665
     15 H4         -3.0980   -6.5330   -1.1160 hn        1 MOL      0.322907
     16 H5         -1.2130   -5.9990   -2.4020 h1        1 MOL      0.099438
     17 H6         -1.0700   -4.3980   -3.6900 hc        1 MOL      0.146690
     18 H7         -2.1480   -3.2690   -2.7690 hc        1 MOL      0.146690
     19 N2         -0.2080   -5.1740    0.1810 n         1 MOL     -0.691250
     20 C7          0.8610   -4.6360    1.0840 c3        1 MOL      0.097792
     21 C8          1.9340   -5.7440    1.3270 c         1 MOL      0.645962
     22 O5          1.5950   -6.9470    1.3190 o         1 MOL     -0.616388
     23 C9          0.2370   -3.9840    2.4480 c3        1 MOL      0.300279
     24 C10        -0.6240   -5.0280    3.1260 c3        1 MOL     -0.137310
     25 C11        -0.3830   -2.6120    2.1810 c3        1 MOL     -0.210353
     26 C12        -1.0990   -4.5260    4.5180 c3        1 MOL     -0.232017
     27 H8         -0.8980   -5.8080    0.5690 hn        1 MOL      0.265575
     28 H9          1.3700   -3.7900    0.6140 h1        1 MOL      0.100060
     29 H10         1.0250   -3.7850    3.1700 hc        1 MOL      0.011137
     30 H11        -0.0120   -5.8880    3.3770 hc        1 MOL      0.071304
     31 H12        -1.5380   -5.3130    2.5910 hc        1 MOL      0.071304
     32 H13        -1.3160   -2.7510    1.6330 hc        1 MOL      0.044013
     33 H14        -0.6140   -2.1540    3.1420 hc        1 MOL      0.044013
     34 H15         0.2800   -2.0280    1.5480 hc        1 MOL      0.044013
     35 H16        -1.9990   -3.9320    4.3710 hc        1 MOL      0.051476
     36 H17        -1.5250   -5.3860    5.0400 hc        1 MOL      0.051476
     37 H18        -0.3110   -4.0360    5.0960 hc        1 MOL      0.051476
     38 N3          3.2020   -5.4710    1.6060 n         1 MOL     -0.668684
     39 C13         3.8080   -4.1090    1.8270 c3        1 MOL     -0.057826
     40 C14         4.9340   -3.7800    0.8000 c         1 MOL      0.541616
     41 O6          5.0620   -2.6120    0.5040 o         1 MOL     -0.486602
     42 C15         4.4420   -4.0310    3.2100 c3        1 MOL     -0.076454
     43 C16         5.3550   -5.2020    3.6010 c         1 MOL      0.646974
     44 O7          6.5570   -5.0210    3.4830 o         1 MOL     -0.699187
     45 O8          4.8450   -6.2870    3.9050 o         1 MOL     -0.699187
     46 H19         3.7900   -6.2900    1.6940 hn        1 MOL      0.361989
     47 H20         3.1140   -3.2810    1.6800 h1        1 MOL      0.031650
     48 H21         3.6550   -3.9400    3.9460 hc        1 MOL      0.017666
     49 H22         5.0260   -3.1080    3.2590 hc        1 MOL      0.017666
     50 N4          5.5980   -4.8050    0.2330 n         1 MOL     -0.245817
     51 C17         6.5470   -4.5930   -0.9120 c3        1 MOL     -0.190528
     52 C18         7.7000   -3.6610   -0.5390 c         1 MOL      0.633336
     53 O9          8.2470   -3.8610    0.5410 o         1 MOL     -0.516596
     54 H23         5.2180   -5.7400    0.2910 hn        1 MOL      0.275970
     55 H24         5.9870   -4.1260   -1.7250 h1        1 MOL      0.064907
     56 H25         6.8540   -5.5860   -1.2260 h1        1 MOL      0.064907
     57 N5          8.1260   -2.7480   -1.4320 n         1 MOL     -0.605598
     58 C19         9.3550   -1.8980   -1.1000 c3        1 MOL      0.068079
     59 C20         9.0260   -0.8920    0.0160 c         1 MOL      0.399965
     60 O10         9.7600    0.0190    0.2100 o         1 MOL     -0.521873
     61 C21         9.8890   -1.2090   -2.3060 c3        1 MOL     -0.111728
     62 C22         8.9300   -0.2120   -2.9260 c         1 MOL      0.713133
     63 O11         9.4580    0.4550   -3.8140 o         1 MOL     -0.698520
     64 O12         7.6980   -0.1770   -2.6250 o         1 MOL     -0.698520
     65 H26         7.7270   -2.7830   -2.3620 hn        1 MOL      0.343989
     66 H27        10.1190   -2.5850   -0.7230 h1        1 MOL      0.064407
     67 H28        10.2150   -1.8900   -3.0920 hc        1 MOL      0.026529
     68 H29        10.8150   -0.7000   -2.0310 hc        1 MOL      0.026529
     69 N6          7.9370   -0.9660    0.7670 n         1 MOL     -0.133106
     70 C23         7.4880   -0.0000    1.7610 c3        1 MOL     -0.409828
     71 C24         7.1860    1.3970    1.2490 c         1 MOL      0.526146
     72 O13         7.0100    2.3090    2.0520 o         1 MOL     -0.570282
     73 H30         7.2890   -1.6950    0.4720 hn        1 MOL      0.191088
     74 H31         8.2320    0.1690    2.5320 h1        1 MOL      0.170080
     75 H32         6.6300   -0.4310    2.2790 h1        1 MOL      0.170080
     76 N7          7.0590    1.5230   -0.1070 n         1 MOL      0.025288
     77 C25         6.7330    2.7650   -0.7310 c3        1 MOL     -0.205395
     78 C26         5.3820    3.4280   -0.4040 c         1 MOL      0.514325
     79 O14         5.1360    4.6520   -0.5080 o         1 MOL     -0.562709
     80 C27         7.9710    3.7380   -0.6570 c3        1 MOL      0.286761
     81 C28         9.2990    3.1490   -0.7770 c3        1 MOL      0.007961
     82 C29        10.3870    4.1850   -0.8530 c         1 MOL      0.515702
     83 N8         10.7700    4.8130    0.1760 n         1 MOL     -0.675692
     84 O15        10.7860    4.6190   -1.9640 o         1 MOL     -0.585385
     85 H33         7.2730    0.7770   -0.7510 hn        1 MOL      0.078235
     86 H34         6.6510    2.5110   -1.7870 h1        1 MOL      0.120521
     87 H35         8.0130    4.3540    0.2430 hc        1 MOL     -0.066010
     88 H36         7.8530    4.4860   -1.4340 hc        1 MOL     -0.066010
     89 H37         9.3450    2.4750   -1.6300 hc        1 MOL     -0.010148
     90 H38         9.4970    2.5470    0.1170 hc        1 MOL     -0.010148
     91 H39        10.4380    4.4840    1.0640 hn        1 MOL      0.326042
     92 H40        11.6260    5.3370    0.0430 hn        1 MOL      0.326042
     93 N9          4.5000    2.5740    0.1040 n         1 MOL     -0.229178
     94 C30         3.1270    2.8910    0.5230 c3        1 MOL     -0.235792
     95 C31         2.2110    3.5030   -0.5670 c         1 MOL      0.559539
     96 O16         2.3470    3.2070   -1.7370 o         1 MOL     -0.525008
     97 C32         2.4900    1.5880    1.1500 c3        1 MOL      0.323852
     98 C33         3.2430    1.0580    2.3930 c3        1 MOL     -0.284787
     99 C34         1.0780    1.9150    1.6540 c3        1 MOL     -0.284787
    100 H41         4.7940    1.6040    0.1740 hn        1 MOL      0.152474
    101 H42         3.1880    3.6280    1.3260 h1        1 MOL      0.116543
    102 H43         2.3670    0.7590    0.4560 hc        1 MOL      0.006351
    103 H44         3.8130    1.8460    2.8840 hc        1 MOL      0.069913
    104 H45         2.5340    0.5650    3.0620 hc        1 MOL      0.069913
    105 H46         3.9840    0.3630    2.0120 hc        1 MOL      0.069913
    106 H47         0.6580    1.0350    2.1370 hc        1 MOL      0.069913
    107 H48         1.2500    2.7540    2.3210 hc        1 MOL      0.069913
    108 H49         0.4190    2.2260    0.8400 hc        1 MOL      0.069913
    109 N10         1.3000    4.4690   -0.2560 n         1 MOL     -0.454127
    110 C35         0.6930    5.4160   -1.2180 c3        1 MOL      0.454005
    111 C36        -0.8630    5.3450   -1.3520 c         1 MOL      0.446839
    112 O17        -1.3580    6.2690   -1.9600 o         1 MOL     -0.522319
    113 C37         1.2310    6.7900   -1.0400 c3        1 MOL     -0.310443
    114 C38         1.2310    7.6360   -2.3090 c         1 MOL      0.700311
    115 N11         2.0310    7.2530   -3.2680 n         1 MOL     -0.839928
    116 O18         0.5860    8.6590   -2.4530 o         1 MOL     -0.586076
    117 H50         1.1720    4.7800    0.6990 hn        1 MOL      0.231883
    118 H51         1.0970    5.1310   -2.1890 h1        1 MOL     -0.064702
    119 H52         2.2460    6.7120   -0.6610 hc        1 MOL      0.074524
    120 H53         0.5730    7.3170   -0.3480 hc        1 MOL      0.074524
    121 H54         2.6030    6.4370   -3.0670 hn        1 MOL      0.384823
    122 H55         2.0020    7.6800   -4.1830 hn        1 MOL      0.384823
    123 N12        -1.4500    4.3470   -0.7540 n         1 MOL     -0.552466
    124 C39        -2.8910    4.1210   -0.4900 c3        1 MOL      0.489721
    125 C40        -3.2160    3.4620    0.8700 c         1 MOL      0.385170
    126 O19        -2.3860    2.8390    1.4940 o         1 MOL     -0.500045
    127 C41        -3.4180    3.2860   -1.7310 c3        1 MOL     -0.378709
    128 C42        -4.8980    3.2810   -1.8720 ca        1 MOL      0.092376
    129 C43        -5.6290    4.4930   -1.8340 ca        1 MOL     -0.186685
    130 C44        -5.5400    2.0610   -1.7700 ca        1 MOL     -0.186685
    131 C45        -7.0240    4.3850   -1.6090 ca        1 MOL     -0.321460
    132 C46        -6.9630    1.9880   -1.8090 ca        1 MOL     -0.321460
    133 C47        -7.7660    3.1540   -1.5540 ca        1 MOL      0.353786
    134 O20        -9.0980    3.0540   -1.2970 oh        1 MOL     -0.506190
    135 H56        -0.8850    3.5780   -0.4150 hn        1 MOL      0.230752
    136 H57        -3.3990    5.0850   -0.5330 h1        1 MOL     -0.039794
    137 H58        -3.1310    2.2930   -1.4040 hc        1 MOL      0.132782
    138 H59        -2.9120    3.5170   -2.6610 hc        1 MOL      0.132782
    139 H60        -5.1140    5.4400   -1.7990 ha        1 MOL      0.184561
    140 H61        -4.9630    1.1480   -1.7000 ha        1 MOL      0.184561
    141 H62        -7.5430    5.3210   -1.4350 ha        1 MOL      0.182502
    142 H63        -7.4310    1.0240   -1.9180 ha        1 MOL      0.182502
    143 H64        -9.4010    2.1580   -1.4550 ho        1 MOL      0.390813
    144 N13        -4.4300    3.7350    1.3650 n         1 MOL     -0.359554
    145 C48        -5.0160    3.0440    2.4970 c3        1 MOL      0.017885
    146 C49        -6.5460    3.0750    2.2370 c         1 MOL      0.463356
    147 O21        -7.1590    4.1040    1.8450 o         1 MOL     -0.544006
    148 C50        -4.8610    3.7520    3.9100 c3        1 MOL      0.161025
    149 C51        -3.5340    3.4010    4.6260 c3        1 MOL     -0.209534
    150 C52        -3.1840    4.2920    5.8020 c         1 MOL      0.730483
    151 O22        -3.6670    4.0310    6.9240 o         1 MOL     -0.710829
    152 O23        -2.4300    5.2960    5.6790 o         1 MOL     -0.710829
    153 H65        -4.9550    4.3800    0.7920 hn        1 MOL      0.246338
    154 H66        -4.6690    2.0150    2.5570 h1        1 MOL      0.096168
    155 H67        -5.6640    3.4870    4.6060 hc        1 MOL     -0.020324
    156 H68        -4.9470    4.8320    3.8420 hc        1 MOL     -0.020324
    157 H69        -2.7650    3.6280    3.8770 hc        1 MOL      0.017407
    158 H70        -3.4750    2.3550    4.9260 hc        1 MOL      0.017407
    159 N14        -7.2570    2.0080    2.5940 n         1 MOL     -0.219515
    160 C53        -6.8130    0.6970    2.9470 c3        1 MOL     -0.258193
    161 C54        -7.8610   -0.1460    3.7780 c         1 MOL      0.582409
    162 O24        -8.8590    0.3660    4.2100 o         1 MOL     -0.534713
    163 C55        -6.3980   -0.0670    1.6320 c3        1 MOL      0.295316
    164 C56        -7.5260   -0.4880    0.7230 c3        1 MOL     -0.282621
    165 C57        -7.0210   -1.2610   -0.5520 c         1 MOL      0.625820
    166 O25        -5.8350   -1.3040   -0.8660 o         1 MOL     -0.725373
    167 O26        -7.8750   -1.7050   -1.3500 o         1 MOL     -0.725373
    168 H71        -8.2350    2.2690    2.6760 hn        1 MOL      0.213188
    169 H72        -5.8890    0.7190    3.5300 h1        1 MOL      0.069953
    170 H73        -5.7220   -0.8810    1.9220 hc        1 MOL     -0.026932
    171 H74        -5.7350    0.6180    1.1090 hc        1 MOL     -0.026932
    172 H75        -7.8890    0.4360    0.2710 hc        1 MOL      0.063759
    173 H76        -8.2410   -0.9990    1.3540 hc        1 MOL      0.063759
    174 N15        -7.5370   -1.3730    4.0150 n         1 MOL     -0.333819
    175 C58        -8.2180   -2.5100    4.7010 c3        1 MOL     -0.114560
    176 H77        -7.4900   -3.0660    5.2920 h1        1 MOL      0.080951
    177 H78        -9.0000   -2.1240    5.3560 h1        1 MOL      0.080951
    178 H79        -8.6620   -3.1710    3.9560 h1        1 MOL      0.080951
    179 H80        -6.6160   -1.6550    3.6990 hn        1 MOL      0.265529
    180 Ca1        -6.1640   -2.6340   -3.1120 Ca        1 MOL      1.761584
    181 O27        -7.0850   -4.7970   -4.4520 oh        1 MOL     -0.861002
    182 H81        -6.5650   -5.3600   -5.0330 ho        1 MOL      0.403236
    183 H82        -7.9780   -4.8900   -4.7680 ho        1 MOL      0.403236
    184 O28        -8.4450   -2.2030   -4.3870 oh        1 MOL     -0.861002
    185 H83        -9.3510   -2.2430   -4.0880 ho        1 MOL      0.403236
    186 H84        -8.5010   -2.3250   -5.3400 ho        1 MOL      0.403236
    187 O29        -3.7480   -1.0870   -3.0640 oh        1 MOL     -0.861002
    188 H85        -3.7340   -0.6900   -3.9410 ho        1 MOL      0.403236
    189 H86        -2.9980   -0.7010   -2.6120 ho        1 MOL      0.403236
    190 O30        -5.7900   -2.2360   -5.6450 oh        1 MOL     -0.861002
    191 H87        -5.8980   -2.7480   -6.4470 ho        1 MOL      0.403236
    192 H88        -5.4390   -1.4000   -5.9520 ho        1 MOL      0.403236
    193 O31        -6.3530    0.1150   -3.9690 oh        1 MOL     -0.861002
    194 H89        -6.1090    0.9510   -3.5740 ho        1 MOL      0.403236
    195 H90        -6.7800    0.3580   -4.7940 ho        1 MOL      0.403236
@<TRIPOS>BOND
     1    1    2 1   
     2    1    4 1   
     3    1    5 1   
     4    1    6 1   
     5    2    3 2   
     6    2    7 1   
     7    7    8 1   
     8    7   15 1   
     9    8    9 1   
    10    8   11 1   
    11    8   16 1   
    12    9   10 2   
    13    9   19 1   
    14   11   12 1   
    15   11   17 1   
    16   11   18 1   
    17   12   13 1   
    18   12   14 1   
    19   19   20 1   
    20   19   27 1   
    21   20   21 1   
    22   20   23 1   
    23   20   28 1   
    24   21   22 2   
    25   21   38 1   
    26   23   24 1   
    27   23   25 1   
    28   23   29 1   
    29   24   26 1   
    30   24   30 1   
    31   24   31 1   
    32   25   32 1   
    33   25   33 1   
    34   25   34 1   
    35   26   35 1   
    36   26   36 1   
    37   26   37 1   
    38   38   39 1   
    39   38   46 1   
    40   39   40 1   
    41   39   42 1   
    42   39   47 1   
    43   40   41 2   
    44   40   50 1   
    45   42   43 1   
    46   42   48 1   
    47   42   49 1   
    48   43   44 1   
    49   43   45 1   
    50   50   51 1   
    51   50   54 1   
    52   51   52 1   
    53   51   55 1   
    54   51   56 1   
    55   52   53 2   
    56   52   57 1   
    57   57   58 1   
    58   57   65 1   
    59   58   59 1   
    60   58   61 1   
    61   58   66 1   
    62   59   60 2   
    63   59   69 1   
    64   61   62 1   
    65   61   67 1   
    66   61   68 1   
    67   62   63 1   
    68   62   64 1   
    69   69   70 1   
    70   69   73 1   
    71   70   71 1   
    72   70   74 1   
    73   70   75 1   
    74   71   72 2   
    75   71   76 1   
    76   76   77 1   
    77   76   85 1   
    78   77   78 1   
    79   77   80 1   
    80   77   86 1   
    81   78   79 2   
    82   78   93 1   
    83   80   81 1   
    84   80   87 1   
    85   80   88 1   
    86   81   82 1   
    87   81   89 1   
    88   81   90 1   
    89   82   83 1   
    90   82   84 2   
    91   83   91 1   
    92   83   92 1   
    93   93   94 1   
    94   93  100 1   
    95   94   95 1   
    96   94   97 1   
    97   94  101 1   
    98   95   96 2   
    99   95  109 1   
   100   97   98 1   
   101   97   99 1   
   102   97  102 1   
   103   98  103 1   
   104   98  104 1   
   105   98  105 1   
   106   99  106 1   
   107   99  107 1   
   108   99  108 1   
   109  109  110 1   
   110  109  117 1   
   111  110  111 1   
   112  110  113 1   
   113  110  118 1   
   114  111  112 2   
   115  111  123 1   
   116  113  114 1   
   117  113  119 1   
   118  113  120 1   
   119  114  115 1   
   120  114  116 2   
   121  115  121 1   
   122  115  122 1   
   123  123  124 1   
   124  123  135 1   
   125  124  125 1   
   126  124  127 1   
   127  124  136 1   
   128  125  126 2   
   129  125  144 1   
   130  127  128 1   
   131  127  137 1   
   132  127  138 1   
   133  128  129 ar  
   134  128  130 ar  
   135  129  131 ar  
   136  129  139 1   
   137  130  132 ar  
   138  130  140 1   
   139  131  133 ar  
   140  131  141 1   
   141  132  133 ar  
   142  132  142 1   
   143  133  134 1   
   144  134  143 1   
   145  144  145 1   
   146  144  153 1   
   147  145  146 1   
   148  145  148 1   
   149  145  154 1   
   150  146  147 2   
   151  146  159 1   
   152  148  149 1   
   153  148  155 1   
   154  148  156 1   
   155  149  150 1   
   156  149  157 1   
   157  149  158 1   
   158  150  151 1   
   159  150  152 1   
   160  159  160 1   
   161  159  168 1   
   162  160  161 1   
   163  160  163 1   
   164  160  169 1   
   165  161  162 2   
   166  161  174 1   
   167  163  164 1   
   168  163  170 1   
   169  163  171 1   
   170  164  165 1   
   171  164  172 1   
   172  164  173 1   
   173  165  166 1   
   174  165  167 1   
   175  174  175 1   
   176  174  179 1   
   177  175  176 1   
   178  175  177 1   
   179  175  178 1   
   180  181  182 1   
   181  181  183 1   
   182  184  185 1   
   183  184  186 1   
   184  187  188 1   
   185  187  189 1   
   186  190  191 1   
   187  190  192 1   
   188  193  194 1   
   189  193  195 1   
@<TRIPOS>SUBSTRUCTURE
     1 MOL         1 TEMP              0 ****  ****    0 ROOT
