@<TRIPOS>MOLECULE
MOL
  189   185     1     0     0
SMALL
resp


@<TRIPOS>ATOM
      1 C1          4.1190    4.2570   -3.4910 c3        1 MOL     -0.340915
      2 C2          4.9200    3.6440   -2.3310 c         1 MOL      0.593054
      3 O1          4.4200    3.5030   -1.2160 o         1 MOL     -0.554887
      4 H1          3.7350    3.4600   -4.1280 hc        1 MOL      0.093289
      5 H2          3.2850    4.8350   -3.0920 hc        1 MOL      0.093289
      6 H3          4.7670    4.9090   -4.0760 hc        1 MOL      0.093289
      7 N1          6.0670    3.1430   -2.5780 n         1 MOL     -0.578921
      8 C3          6.8950    2.3370   -1.7250 c3        1 MOL      0.333614
      9 C4          6.2340    1.0570   -1.4030 c         1 MOL      0.356528
     10 O2          5.8950    0.8750   -0.2020 o         1 MOL     -0.486071
     11 C5          7.7690    2.9940   -0.5640 c3        1 MOL     -0.336024
     12 C6          6.8580    3.8940    0.2890 c         1 MOL      0.982157
     13 O3          6.3090    3.3740    1.2510 o         1 MOL     -0.790890
     14 O4          6.8610    5.0980    0.1710 o         1 MOL     -0.790890
     15 H4          6.3670    3.2410   -3.5370 hn        1 MOL      0.291630
     16 H5          7.6990    2.0620   -2.4070 h1        1 MOL      0.002032
     17 H6          8.4330    3.6790   -1.1040 hc        1 MOL      0.048222
     18 H7          8.2470    2.2120    0.0250 hc        1 MOL      0.048222
     19 N2          5.8640    0.3330   -2.4900 n         1 MOL     -0.469302
     20 C7          5.2610   -1.0410   -2.7140 c3        1 MOL     -0.049583
     21 C8          5.8720   -2.2160   -1.8610 c         1 MOL      0.381522
     22 O5          5.8700   -3.3520   -2.3430 o         1 MOL     -0.552123
     23 C9          3.8100   -0.9510   -2.5390 c3        1 MOL      0.479918
     24 C10         3.0830   -2.2370   -2.7860 c3        1 MOL     -0.232421
     25 C11         3.1590    0.1250   -3.4060 c3        1 MOL      0.046933
     26 C12         2.9260   -2.7570   -4.2580 c3        1 MOL     -0.417973
     27 H8          6.1540    0.6440   -3.4110 hn        1 MOL      0.259200
     28 H9          5.4010   -1.2540   -3.7660 h1        1 MOL      0.070456
     29 H10         3.6160   -0.7040   -1.4930 hc        1 MOL     -0.144867
     30 H11         2.0740   -2.0800   -2.3810 hc        1 MOL      0.148217
     31 H12         3.3970   -3.0620   -2.1530 hc        1 MOL      0.148217
     32 H13         2.0800    0.1220   -3.2740 hc        1 MOL     -0.045786
     33 H14         3.6400    1.0590   -3.1080 hc        1 MOL     -0.045786
     34 H15         3.4180   -0.0070   -4.4620 hc        1 MOL     -0.045786
     35 H16         2.3070   -2.0540   -4.7940 hc        1 MOL      0.093092
     36 H17         3.9030   -2.8340   -4.7370 hc        1 MOL      0.093092
     37 H18         2.3420   -3.6770   -4.2670 hc        1 MOL      0.093092
     38 N3          6.3940   -2.0710   -0.6280 n         1 MOL     -0.101267
     39 C13         7.2430   -3.0200    0.0410 c3        1 MOL      0.053951
     40 C14         6.5810   -4.4170    0.3200 c         1 MOL      0.496337
     41 O6          7.3210   -5.4540    0.3230 o         1 MOL     -0.597045
     42 C15         7.6140   -2.3830    1.3800 c3        1 MOL     -0.289134
     43 C16         8.3470   -1.0000    1.2840 c         1 MOL      0.830782
     44 O7          9.2530   -0.9090    0.4320 o         1 MOL     -0.725865
     45 O8          8.0960   -0.1600    2.1670 o         1 MOL     -0.725865
     46 H19         6.2460   -1.1790   -0.1740 hn        1 MOL      0.157573
     47 H20         8.1100   -3.0790   -0.6110 h1        1 MOL      0.046587
     48 H21         8.1790   -3.0830    1.9910 hc        1 MOL      0.059567
     49 H22         6.6270   -2.2610    1.8310 hc        1 MOL      0.059567
     50 N4          5.2570   -4.6250    0.4300 n         1 MOL     -0.412171
     51 C17         4.1730   -3.6610    0.6880 c3        1 MOL      0.065909
     52 C18         2.9170   -4.3140    1.3420 c         1 MOL      0.426101
     53 O9          2.6250   -5.4660    1.1130 o         1 MOL     -0.565881
     54 H23         4.9750   -5.5910    0.5460 hn        1 MOL      0.267176
     55 H24         3.7720   -3.2860   -0.2510 h1        1 MOL      0.059109
     56 H25         4.5330   -2.7640    1.2150 h1        1 MOL      0.059109
     57 N5          2.0650   -3.6920    2.1350 n         1 MOL     -0.267292
     58 C19         2.1670   -2.3550    2.6550 c3        1 MOL      0.044440
     59 C20         2.1930   -1.1590    1.6000 c         1 MOL      0.065198
     60 O10         3.2130   -0.5390    1.4470 o         1 MOL     -0.486076
     61 C21         3.2170   -2.2400    3.8260 c3        1 MOL     -0.142052
     62 C22         3.0680   -0.8890    4.5160 c         1 MOL      0.696701
     63 O11         1.9000   -0.3390    4.5750 o         1 MOL     -0.669781
     64 O12         4.0980   -0.3880    4.9470 o         1 MOL     -0.669781
     65 H26         1.2270   -4.1920    2.3980 hn        1 MOL      0.222049
     66 H27         1.1830   -2.2170    3.0950 h1        1 MOL      0.047582
     67 H28         4.2310   -2.4600    3.4740 hc        1 MOL      0.041166
     68 H29         2.9260   -3.0050    4.5550 hc        1 MOL      0.041166
     69 N6          1.1540   -0.8700    0.8220 n         1 MOL     -0.013333
     70 C23        -0.2020   -1.4170    0.8240 c3        1 MOL     -0.082153
     71 C24        -0.3970   -2.7250    0.0260 c         1 MOL      0.464339
     72 O13         0.5280   -3.2950   -0.5770 o         1 MOL     -0.465856
     73 H30         1.3160   -0.3710   -0.0320 hn        1 MOL      0.139947
     74 H31        -0.9180   -0.7080    0.4240 h1        1 MOL      0.056813
     75 H32        -0.3630   -1.5560    1.8960 h1        1 MOL      0.056813
     76 N7         -1.6830   -3.1960   -0.0530 n         1 MOL     -0.199801
     77 C25        -2.0590   -4.5340   -0.5980 c3        1 MOL     -0.165838
     78 C26        -2.6870   -4.2850   -2.0120 c         1 MOL      0.533597
     79 O14        -2.3980   -5.0850   -2.8770 o         1 MOL     -0.515798
     80 C27        -2.9540   -5.3030    0.3690 c3        1 MOL      0.299037
     81 C28        -2.1430   -5.7450    1.6190 c3        1 MOL     -0.358088
     82 C29        -2.0000   -4.6410    2.6410 c         1 MOL      0.675993
     83 N8         -3.1040   -4.1050    3.2230 n         1 MOL     -0.816282
     84 O15        -0.9050   -4.2440    2.9800 o         1 MOL     -0.494978
     85 H33        -2.3770   -2.7110    0.5030 hn        1 MOL      0.156944
     86 H34        -1.1850   -5.1910   -0.7160 h1        1 MOL      0.165375
     87 H35        -3.3390   -6.2060   -0.1040 hc        1 MOL     -0.061109
     88 H36        -3.8610   -4.7320    0.5840 hc        1 MOL     -0.061109
     89 H37        -1.1170   -5.9420    1.3230 hc        1 MOL      0.110664
     90 H38        -2.6660   -6.5430    2.1490 hc        1 MOL      0.110664
     91 H39        -4.0320   -4.3300    2.8870 hn        1 MOL      0.345953
     92 H40        -2.9330   -3.4350    3.9670 hn        1 MOL      0.345953
     93 N9         -3.3680   -3.1640   -2.2680 n         1 MOL     -0.427349
     94 C30        -3.9680   -2.7420   -3.5470 c3        1 MOL     -0.291058
     95 C31        -5.3240   -2.0440   -3.4250 c         1 MOL      0.530935
     96 O16        -5.9290   -1.5830   -4.4160 o         1 MOL     -0.538277
     97 C32        -2.9760   -1.8160   -4.3610 c3        1 MOL      0.261586
     98 C33        -1.8820   -2.5430   -5.1160 c3        1 MOL     -0.359963
     99 C34        -2.3120   -0.7690   -3.3690 c3        1 MOL     -0.359963
    100 H41        -3.4660   -2.5050   -1.5060 hn        1 MOL      0.262843
    101 H42        -4.1410   -3.6010   -4.1880 h1        1 MOL      0.195910
    102 H43        -3.4300   -1.2120   -5.1470 hc        1 MOL      0.022009
    103 H44        -1.2840   -3.2380   -4.5220 hc        1 MOL      0.098577
    104 H45        -2.3250   -3.1520   -5.9000 hc        1 MOL      0.098577
    105 H46        -1.3170   -1.7930   -5.6660 hc        1 MOL      0.098577
    106 H47        -1.8200    0.0210   -3.9400 hc        1 MOL      0.098577
    107 H48        -3.0510   -0.2780   -2.7290 hc        1 MOL      0.098577
    108 H49        -1.5000   -1.1570   -2.7590 hc        1 MOL      0.098577
    109 N10        -5.9650   -2.1110   -2.2510 n         1 MOL     -0.397942
    110 C35        -7.3250   -1.7000   -1.9730 c3        1 MOL      0.335800
    111 C36        -7.4730   -0.3040   -1.3250 c         1 MOL      0.347691
    112 O17        -8.5680    0.2620   -1.4510 o         1 MOL     -0.502532
    113 C37        -8.1300   -2.8680   -1.3750 c3        1 MOL     -0.461644
    114 C38        -9.5160   -2.6120   -0.7750 c         1 MOL      0.799547
    115 N11       -10.5040   -2.8400   -1.5850 n         1 MOL     -0.877157
    116 O18        -9.6900   -2.0580    0.2930 o         1 MOL     -0.573224
    117 H50        -5.4680   -2.3330   -1.3980 hn        1 MOL      0.270049
    118 H51        -7.8380   -1.5290   -2.9230 h1        1 MOL      0.039294
    119 H52        -7.5330   -3.2030   -0.5280 hc        1 MOL      0.092013
    120 H53        -8.1220   -3.7040   -2.0830 hc        1 MOL      0.092013
    121 H54       -10.2490   -2.8690   -2.5650 hn        1 MOL      0.392381
    122 H55       -11.4470   -2.7310   -1.2630 hn        1 MOL      0.392381
    123 N12        -6.4540    0.2400   -0.6920 n         1 MOL     -0.364172
    124 C39        -6.4950    1.6820   -0.1570 c3        1 MOL      0.174610
    125 C40        -5.1170    2.4140   -0.0430 c         1 MOL      0.364784
    126 O19        -4.0560    1.8420    0.1150 o         1 MOL     -0.485247
    127 C41        -7.2270    1.7070    1.1560 c3        1 MOL     -0.506060
    128 C42        -6.7210    0.6580    2.1750 ca        1 MOL      0.184428
    129 C43        -5.4450    0.8500    2.7800 ca        1 MOL     -0.187258
    130 C44        -7.4880   -0.4990    2.4610 ca        1 MOL     -0.187258
    131 C45        -4.9880   -0.1160    3.6870 ca        1 MOL     -0.274623
    132 C46        -7.0630   -1.4050    3.4270 ca        1 MOL     -0.274623
    133 C47        -5.8340   -1.2380    4.0520 ca        1 MOL      0.364008
    134 O20        -5.3290   -2.1050    5.0110 oh        1 MOL     -0.572165
    135 H56        -5.6920   -0.3880   -0.4830 hn        1 MOL      0.231971
    136 H57        -7.0550    2.2160   -0.9360 h1        1 MOL      0.081143
    137 H58        -8.2790    1.5080    0.9590 hc        1 MOL      0.173296
    138 H59        -7.1360    2.6780    1.6450 hc        1 MOL      0.173296
    139 H60        -4.7280    1.6040    2.5030 ha        1 MOL      0.182524
    140 H61        -8.4170   -0.6710    1.9320 ha        1 MOL      0.182524
    141 H62        -4.0270   -0.0420    4.1940 ha        1 MOL      0.144440
    142 H63        -7.7730   -2.1950    3.6190 ha        1 MOL      0.144440
    143 H64        -4.4070   -1.9450    5.1970 ho        1 MOL      0.424639
    144 N13        -5.1160    3.7330   -0.0680 n         1 MOL     -0.577140
    145 C48        -4.1480    4.6800    0.5410 c3        1 MOL      0.209982
    146 C49        -2.7630    4.7660   -0.0840 c         1 MOL      0.577196
    147 O21        -2.1400    5.8010    0.0150 o         1 MOL     -0.552211
    148 C50        -4.1410    4.4210    2.0880 c3        1 MOL      0.000206
    149 C51        -3.8780    5.7400    2.8000 c3        1 MOL     -0.518585
    150 C52        -4.1910    5.6640    4.3250 c         1 MOL      0.812578
    151 O22        -3.3130    5.5750    5.2480 o         1 MOL     -0.751539
    152 O23        -5.3920    5.7030    4.6200 o         1 MOL     -0.751539
    153 H65        -6.0420    4.1140   -0.2430 hn        1 MOL      0.305404
    154 H66        -4.5060    5.6910    0.3420 h1        1 MOL      0.037455
    155 H67        -3.4100    3.6370    2.2950 hc        1 MOL      0.085097
    156 H68        -5.1350    4.1270    2.4190 hc        1 MOL      0.085097
    157 H69        -4.4620    6.5410    2.3630 hc        1 MOL      0.101589
    158 H70        -2.8390    6.0300    2.5870 hc        1 MOL      0.101589
    159 N14        -2.3150    3.8550   -0.9130 n         1 MOL     -0.503447
    160 C53        -1.0590    4.0120   -1.7300 c3        1 MOL     -0.037260
    161 C54        -1.2690    4.8450   -3.0160 c         1 MOL      0.452623
    162 O24        -0.2800    5.3050   -3.6270 o         1 MOL     -0.529885
    163 C55        -0.6280    2.6240   -2.2870 c3        1 MOL     -0.220944
    164 C56        -0.1670    1.6270   -1.1900 c3        1 MOL      0.645158
    165 C57         1.1310    2.0470   -0.4980 c         1 MOL      0.482773
    166 O25         1.2310    2.9490    0.3610 o         1 MOL     -0.661812
    167 O26         2.1400    1.3560   -0.8000 o         1 MOL     -0.661812
    168 H71        -2.8000    2.9680   -0.8930 hn        1 MOL      0.336705
    169 H72        -0.2450    4.4860   -1.1770 h1        1 MOL      0.182404
    170 H73         0.1850    2.6870   -3.0150 hc        1 MOL      0.028078
    171 H74        -1.4180    2.0410   -2.7570 hc        1 MOL      0.028078
    172 H75        -0.1900    0.5780   -1.5000 hc        1 MOL     -0.204974
    173 H76        -0.8990    1.5770   -0.3810 hc        1 MOL     -0.204974
    174 N15        -2.5250    5.0990   -3.4510 n         1 MOL     -0.206911
    175 C58        -3.1130    5.9560   -4.4180 c3        1 MOL     -0.105625
    176 H77        -3.5960    5.3550   -5.1890 h1        1 MOL      0.062374
    177 H78        -3.8550    6.5930   -3.9380 h1        1 MOL      0.062374
    178 H79        -2.3410    6.5760   -4.8720 h1        1 MOL      0.062374
    179 H80        -3.2030    4.8390   -2.7480 hn        1 MOL      0.169959
    180 Ca1         3.8970    2.1060    1.0660 Ca        1 MOL      1.800551
    181 O27         5.3610    0.6550    2.9940 oh        1 MOL     -0.882049
    182 H81         4.9250    0.1140    3.6590 ho        1 MOL      0.418536
    183 H82         6.2710    0.3550    2.9950 ho        1 MOL      0.418536
    184 O28         2.2370    1.8990    3.1100 oh        1 MOL     -0.882049
    185 H83         2.0910    1.1640    3.6990 ho        1 MOL      0.418536
    186 H84         1.3730    2.3080    3.0330 ho        1 MOL      0.418536
    187 O29         3.7310    4.9630    1.2090 oh        1 MOL     -0.882049
    188 H85         4.0120    5.7570    1.6670 ho        1 MOL      0.418536
    189 H86         3.3230    5.2830    0.4030 ho        1 MOL      0.418536
@<TRIPOS>BOND
     1    1    2 1   
     2    1    4 1   
     3    1    5 1   
     4    1    6 1   
     5    2    3 2   
     6    2    7 1   
     7    7    8 1   
     8    7   15 1   
     9    8    9 1   
    10    8   11 1   
    11    8   16 1   
    12    9   10 2   
    13    9   19 1   
    14   11   12 1   
    15   11   17 1   
    16   11   18 1   
    17   12   13 1   
    18   12   14 1   
    19   19   20 1   
    20   19   27 1   
    21   20   21 1   
    22   20   23 1   
    23   20   28 1   
    24   21   22 2   
    25   21   38 1   
    26   23   24 1   
    27   23   25 1   
    28   23   29 1   
    29   24   26 1   
    30   24   30 1   
    31   24   31 1   
    32   25   32 1   
    33   25   33 1   
    34   25   34 1   
    35   26   35 1   
    36   26   36 1   
    37   26   37 1   
    38   38   39 1   
    39   38   46 1   
    40   39   40 1   
    41   39   42 1   
    42   39   47 1   
    43   40   41 2   
    44   40   50 1   
    45   42   43 1   
    46   42   48 1   
    47   42   49 1   
    48   43   44 1   
    49   43   45 1   
    50   50   51 1   
    51   50   54 1   
    52   51   52 1   
    53   51   55 1   
    54   51   56 1   
    55   52   53 2   
    56   52   57 1   
    57   57   58 1   
    58   57   65 1   
    59   58   59 1   
    60   58   61 1   
    61   58   66 1   
    62   59   60 2   
    63   59   69 1   
    64   61   62 1   
    65   61   67 1   
    66   61   68 1   
    67   62   63 1   
    68   62   64 1   
    69   69   70 1   
    70   69   73 1   
    71   70   71 1   
    72   70   74 1   
    73   70   75 1   
    74   71   72 2   
    75   71   76 1   
    76   76   77 1   
    77   76   85 1   
    78   77   78 1   
    79   77   80 1   
    80   77   86 1   
    81   78   79 2   
    82   78   93 1   
    83   80   81 1   
    84   80   87 1   
    85   80   88 1   
    86   81   82 1   
    87   81   89 1   
    88   81   90 1   
    89   82   83 1   
    90   82   84 2   
    91   83   91 1   
    92   83   92 1   
    93   93   94 1   
    94   93  100 1   
    95   94   95 1   
    96   94   97 1   
    97   94  101 1   
    98   95   96 2   
    99   95  109 1   
   100   97   98 1   
   101   97   99 1   
   102   97  102 1   
   103   98  103 1   
   104   98  104 1   
   105   98  105 1   
   106   99  106 1   
   107   99  107 1   
   108   99  108 1   
   109  109  110 1   
   110  109  117 1   
   111  110  111 1   
   112  110  113 1   
   113  110  118 1   
   114  111  112 2   
   115  111  123 1   
   116  113  114 1   
   117  113  119 1   
   118  113  120 1   
   119  114  115 1   
   120  114  116 2   
   121  115  121 1   
   122  115  122 1   
   123  123  124 1   
   124  123  135 1   
   125  124  125 1   
   126  124  127 1   
   127  124  136 1   
   128  125  126 2   
   129  125  144 1   
   130  127  128 1   
   131  127  137 1   
   132  127  138 1   
   133  128  129 ar  
   134  128  130 ar  
   135  129  131 ar  
   136  129  139 1   
   137  130  132 ar  
   138  130  140 1   
   139  131  133 ar  
   140  131  141 1   
   141  132  133 ar  
   142  132  142 1   
   143  133  134 1   
   144  134  143 1   
   145  144  145 1   
   146  144  153 1   
   147  145  146 1   
   148  145  148 1   
   149  145  154 1   
   150  146  147 2   
   151  146  159 1   
   152  148  149 1   
   153  148  155 1   
   154  148  156 1   
   155  149  150 1   
   156  149  157 1   
   157  149  158 1   
   158  150  151 1   
   159  150  152 1   
   160  159  160 1   
   161  159  168 1   
   162  160  161 1   
   163  160  163 1   
   164  160  169 1   
   165  161  162 2   
   166  161  174 1   
   167  163  164 1   
   168  163  170 1   
   169  163  171 1   
   170  164  165 1   
   171  164  172 1   
   172  164  173 1   
   173  165  166 1   
   174  165  167 1   
   175  174  175 1   
   176  174  179 1   
   177  175  176 1   
   178  175  177 1   
   179  175  178 1   
   180  181  182 1   
   181  181  183 1   
   182  184  185 1   
   183  184  186 1   
   184  187  188 1   
   185  187  189 1   
@<TRIPOS>SUBSTRUCTURE
     1 MOL         1 TEMP              0 ****  ****    0 ROOT
