@<TRIPOS>MOLECULE
MOL
  189   185     1     0     0
SMALL
resp


@<TRIPOS>ATOM
      1 C1         11.7470    5.8140   -2.6710 c3        1 MOL     -0.687008
      2 C2         11.4640    4.4810   -2.0050 c         1 MOL      0.847520
      3 O1         12.1090    3.4570   -2.3050 o         1 MOL     -0.632342
      4 H1         11.6510    6.6140   -1.9370 hc        1 MOL      0.177839
      5 H2         12.7590    5.8110   -3.0740 hc        1 MOL      0.177839
      6 H3         11.0340    5.9760   -3.4790 hc        1 MOL      0.177839
      7 N1         10.6320    4.4920   -0.9270 n         1 MOL     -0.285748
      8 C3         10.5680    3.3070   -0.0650 c3        1 MOL     -0.626431
      9 C4          9.6000    2.2290   -0.5860 c         1 MOL      0.521394
     10 O2          8.4270    2.5270   -0.9440 o         1 MOL     -0.455068
     11 C5         10.3010    3.5520    1.4460 c3        1 MOL      0.586874
     12 C6          9.0720    4.3270    1.9050 c         1 MOL      0.686486
     13 O3          8.3880    5.0210    1.0730 o         1 MOL     -0.731572
     14 O4          8.8550    4.2090    3.1060 o         1 MOL     -0.731572
     15 H4         10.3320    5.4070   -0.6220 hn        1 MOL      0.117020
     16 H5         11.5410    2.8030   -0.0440 h1        1 MOL      0.144045
     17 H6         11.1520    4.0640    1.8950 hc        1 MOL     -0.083260
     18 H7         10.1990    2.5830    1.9380 hc        1 MOL     -0.083260
     19 N2         10.0250    0.9320   -0.4560 n         1 MOL     -0.348569
     20 C7          9.2060   -0.2590   -0.8060 c3        1 MOL     -0.022000
     21 C8          8.1110   -0.6070    0.1890 c         1 MOL      0.694939
     22 O5          8.3180   -0.7810    1.4200 o         1 MOL     -0.573393
     23 C9         10.1870   -1.4910   -1.0680 c3        1 MOL     -0.276332
     24 C10        11.3970   -1.2530   -1.9580 c3        1 MOL      0.179844
     25 C11        12.2950   -2.5030   -1.8610 c3        1 MOL     -0.159950
     26 C12        13.7200   -2.3150   -2.4140 c3        1 MOL     -0.153887
     27 N3         14.4020   -1.1660   -1.7480 n4        1 MOL     -0.167346
     28 H8         10.9370    0.6860   -0.1040 hn        1 MOL      0.250988
     29 H9          8.6600    0.0190   -1.7090 h1        1 MOL      0.094910
     30 H10         9.5610   -2.2820   -1.4690 hc        1 MOL      0.081348
     31 H11        10.5870   -1.8150   -0.1120 hc        1 MOL      0.081348
     32 H12        11.9510   -0.3290   -1.7900 hc        1 MOL      0.005010
     33 H13        11.0040   -1.1750   -2.9660 hc        1 MOL      0.005010
     34 H14        11.7060   -3.1880   -2.4660 hc        1 MOL      0.093788
     35 H15        12.3540   -2.8010   -0.8170 hc        1 MOL      0.093788
     36 H16        13.6120   -2.2080   -3.4950 hx        1 MOL      0.132640
     37 H17        14.2980   -3.2040   -2.1680 hx        1 MOL      0.132640
     38 H18        14.5440   -1.3070   -0.7510 hn        1 MOL      0.230276
     39 H19        15.3390   -0.9730   -2.0860 hn        1 MOL      0.230276
     40 H20        13.8900   -0.2900   -1.8090 hn        1 MOL      0.230276
     41 N4          6.9070   -0.6930   -0.2620 n         1 MOL     -0.471243
     42 C13         5.6680   -0.7800    0.4830 c3        1 MOL      0.144266
     43 C14         4.5480   -1.1950   -0.5050 c         1 MOL      0.464392
     44 O6          4.7170   -1.0800   -1.6800 o         1 MOL     -0.513044
     45 C15         5.3570    0.4570    1.3020 c3        1 MOL      0.151339
     46 C16         5.7460    1.7730    0.6820 c         1 MOL      0.380888
     47 O7          6.3750    2.6290    1.3670 o         1 MOL     -0.683512
     48 O8          5.4260    2.0530   -0.5020 o         1 MOL     -0.683512
     49 H21         6.7570   -0.6910   -1.2560 hn        1 MOL      0.235802
     50 H22         5.7550   -1.5960    1.2050 h1        1 MOL      0.009114
     51 H23         5.8350    0.4400    2.2840 hc        1 MOL      0.039079
     52 H24         4.2790    0.5210    1.4780 hc        1 MOL      0.039079
     53 N5          3.3940   -1.6260   -0.0060 n         1 MOL     -0.451804
     54 C17         3.0900   -1.9610    1.3560 c3        1 MOL      0.220417
     55 C18         3.1420   -3.4240    1.7780 c         1 MOL      0.579998
     56 O9          3.5940   -4.2690    1.0150 o         1 MOL     -0.567624
     57 H25         2.7060   -1.8080   -0.7290 hn        1 MOL      0.282074
     58 H26         2.0360   -1.7050    1.4150 h1        1 MOL     -0.029459
     59 H27         3.6020   -1.3500    2.1020 h1        1 MOL     -0.029459
     60 N6          2.6790   -3.8300    2.9770 n         1 MOL     -0.525317
     61 C19         2.5830   -5.2130    3.5510 c3        1 MOL      0.146586
     62 C20         1.4210   -5.9740    2.8960 c         1 MOL      0.455501
     63 O10         0.2760   -6.0900    3.3640 o         1 MOL     -0.520008
     64 C21         2.4030   -5.1720    5.1280 c3        1 MOL     -0.144255
     65 C22         3.5580   -4.4230    5.8680 c         1 MOL      0.617772
     66 O11         4.4050   -3.7130    5.2150 o         1 MOL     -0.618143
     67 O12         3.4660   -4.3110    7.1220 o         1 MOL     -0.618143
     68 H28         2.3450   -3.0810    3.5780 hn        1 MOL      0.307907
     69 H29         3.4990   -5.7430    3.3010 h1        1 MOL      0.029671
     70 H30         2.5040   -6.2200    5.3730 hc        1 MOL      0.046187
     71 H31         1.4080   -4.8440    5.4360 hc        1 MOL      0.046187
     72 N7          1.7210   -6.3950    1.6670 n         1 MOL     -0.369646
     73 C23         0.8090   -7.0490    0.7900 c3        1 MOL     -0.078855
     74 C24         0.0960   -6.1630   -0.2220 c         1 MOL      0.513528
     75 O13        -0.7150   -6.7280   -0.9910 o         1 MOL     -0.570437
     76 H32         2.6390   -6.2130    1.2900 hn        1 MOL      0.282807
     77 H33         0.0860   -7.6400    1.3520 h1        1 MOL      0.092018
     78 H34         1.3820   -7.7660    0.2000 h1        1 MOL      0.092018
     79 N8          0.3200   -4.8100   -0.2810 n         1 MOL     -0.146338
     80 C25        -0.1380   -3.8900   -1.2860 c3        1 MOL     -0.309000
     81 C26        -0.5850   -2.5220   -0.5940 c         1 MOL      0.497532
     82 O14         0.1740   -1.9940    0.2240 o         1 MOL     -0.461317
     83 C27         0.8790   -3.6410   -2.4580 c3        1 MOL      0.555166
     84 C28         0.4620   -2.6660   -3.6680 c3        1 MOL     -0.437458
     85 O15         2.1830   -3.2400   -2.1310 oh        1 MOL     -0.656739
     86 H35         1.0580   -4.5070    0.3450 hn        1 MOL      0.168491
     87 H36        -1.0400   -4.3170   -1.7270 h1        1 MOL      0.081928
     88 H37         1.0150   -4.6020   -2.9530 h1        1 MOL     -0.012429
     89 H38         2.5620   -2.7290   -2.8530 ho        1 MOL      0.393589
     90 H39         1.2280   -2.7690   -4.4480 hc        1 MOL      0.101746
     91 H40        -0.5200   -2.9960   -4.0080 hc        1 MOL      0.101746
     92 H41         0.4020   -1.6510   -3.2660 hc        1 MOL      0.101746
     93 N9         -1.8400   -2.0970   -0.8190 n         1 MOL     -0.282148
     94 C29        -2.5990   -1.0640   -0.0640 c3        1 MOL     -0.238524
     95 C30        -4.1570   -1.3840    0.1150 c         1 MOL      0.638284
     96 O16        -4.7800   -0.9540    1.1220 o         1 MOL     -0.508045
     97 C31        -2.3620    0.3940   -0.5760 c3        1 MOL      0.159715
     98 C32        -2.7060    1.5520    0.3630 c3        1 MOL      0.011643
     99 C33        -2.9620    0.5020   -1.9750 c3        1 MOL     -0.391018
    100 C34        -2.1450    2.9120   -0.0900 c3        1 MOL      0.032277
    101 H42        -2.2970   -2.5260   -1.6110 hn        1 MOL      0.290921
    102 H43        -2.3600   -1.0880    0.9980 h1        1 MOL      0.137347
    103 H44        -1.2870    0.3480   -0.6740 hc        1 MOL      0.039997
    104 H45        -2.2040    1.3990    1.3100 hc        1 MOL      0.014258
    105 H46        -3.7810    1.6240    0.5360 hc        1 MOL      0.014258
    106 H47        -4.0290    0.7470   -1.9010 hc        1 MOL      0.090835
    107 H48        -2.4590    1.3540   -2.4350 hc        1 MOL      0.090835
    108 H49        -2.7160   -0.4120   -2.5250 hc        1 MOL      0.090835
    109 H50        -2.3010    3.7700    0.5570 hc        1 MOL     -0.016411
    110 H51        -1.0660    2.7970   -0.2040 hc        1 MOL     -0.016411
    111 H52        -2.5150    3.1720   -1.0760 hc        1 MOL     -0.016411
    112 N10        -4.6890   -2.1400   -0.8290 n         1 MOL     -0.542310
    113 C35        -6.1350   -2.5920   -0.7720 c3        1 MOL     -0.035310
    114 C36        -6.8720   -2.2810   -2.0720 c         1 MOL      0.656485
    115 O17        -6.3560   -2.3070   -3.1640 o         1 MOL     -0.519373
    116 C37        -6.3000   -4.1130   -0.4620 c3        1 MOL      0.390659
    117 C38        -5.5250   -5.0550   -1.3960 c3        1 MOL     -0.332010
    118 O18        -5.8010   -4.3530    0.8170 oh        1 MOL     -0.601042
    119 H53        -4.1590   -2.6000   -1.5550 hn        1 MOL      0.263140
    120 H54        -6.6500   -2.1450    0.0760 h1        1 MOL      0.134090
    121 H55        -7.3590   -4.3550   -0.5790 h1        1 MOL     -0.032110
    122 H56        -5.1480   -5.0500    0.6870 ho        1 MOL      0.399711
    123 H57        -4.4550   -4.9580   -1.2050 hc        1 MOL      0.088973
    124 H58        -5.7450   -6.1150   -1.2530 hc        1 MOL      0.088973
    125 H59        -5.7900   -4.7800   -2.4130 hc        1 MOL      0.088973
    126 N11        -8.1840   -2.0640   -1.9850 n         1 MOL     -0.686271
    127 C39        -9.0600   -1.3640   -2.9480 c3        1 MOL      0.169180
    128 C40        -9.2820    0.1140   -2.6500 c         1 MOL      0.590421
    129 O19        -9.4190    0.9260   -3.5750 o         1 MOL     -0.565306
    130 C41       -10.4140   -2.1780   -3.0510 c3        1 MOL      0.321068
    131 C42       -11.3150   -1.7570   -4.2430 c3        1 MOL     -0.446596
    132 O20       -11.1440   -2.0330   -1.8240 oh        1 MOL     -0.649109
    133 H60        -8.5420   -2.1310   -1.0390 hn        1 MOL      0.305899
    134 H61        -8.5790   -1.3750   -3.9240 h1        1 MOL      0.073377
    135 H62       -10.1040   -3.2160   -3.1750 h1        1 MOL      0.026765
    136 H63       -11.7550   -2.7770   -1.8310 ho        1 MOL      0.392451
    137 H64       -11.5990   -0.7240   -4.0420 hc        1 MOL      0.119628
    138 H65       -10.5830   -1.8120   -5.0480 hc        1 MOL      0.119628
    139 H66       -12.1370   -2.4790   -4.2510 hc        1 MOL      0.119628
    140 N12        -9.2630    0.4580   -1.3710 n         1 MOL     -0.449190
    141 C43        -9.6510    1.7670   -0.9290 c3        1 MOL      0.162846
    142 C44        -8.7690    2.1850    0.2280 c         1 MOL      0.459473
    143 O21        -7.9840    1.4390    0.7620 o         1 MOL     -0.471528
    144 C45       -11.1920    1.8130   -0.6560 c3        1 MOL     -0.134132
    145 C46       -11.5420    1.0400    0.6810 c3        1 MOL     -0.173623
    146 C47       -13.0430    0.7910    0.8800 c3        1 MOL     -0.027515
    147 C48       -13.6980    0.1290   -0.3880 c3        1 MOL     -0.000257
    148 N13       -14.9070   -0.5880    0.0720 n4        1 MOL     -0.167476
    149 H67        -9.0700   -0.3060   -0.7450 hn        1 MOL      0.241130
    150 H68        -9.5630    2.4610   -1.7710 h1        1 MOL      0.060592
    151 H69       -11.6830    1.3500   -1.5140 hc        1 MOL      0.061702
    152 H70       -11.4750    2.8580   -0.6120 hc        1 MOL      0.061702
    153 H71       -11.2290    1.6320    1.5380 hc        1 MOL      0.091007
    154 H72       -11.0020    0.0930    0.6530 hc        1 MOL      0.091007
    155 H73       -13.5280    1.7190    1.1840 hc        1 MOL      0.053475
    156 H74       -13.2310    0.2370    1.7980 hc        1 MOL      0.053475
    157 H75       -13.0950   -0.5290   -1.0020 hx        1 MOL      0.081314
    158 H76       -14.0460    0.9850   -0.9780 hx        1 MOL      0.081314
    159 H77       -15.5080   -0.5850   -0.7350 hn        1 MOL      0.204426
    160 H78       -14.8110   -1.5230    0.4380 hn        1 MOL      0.204426
    161 H79       -15.3780   -0.0340    0.7690 hn        1 MOL      0.204426
    162 N14        -8.8920    3.4920    0.6380 n         1 MOL     -0.491016
    163 C49        -8.1640    4.1750    1.7270 c3        1 MOL      0.236767
    164 C50        -6.5720    4.0210    1.7410 c         1 MOL      0.389922
    165 O22        -6.0300    3.7610    2.7870 o         1 MOL     -0.502121
    166 C51        -8.4950    5.6990    1.6430 c3        1 MOL      0.024494
    167 C52        -8.2530    6.3210    3.0720 c3        1 MOL     -0.324422
    168 C53        -8.7000    7.7740    3.2200 c         1 MOL      0.744561
    169 O23        -7.9480    8.7610    3.3830 o         1 MOL     -0.641446
    170 O24        -9.9240    8.0110    3.0940 o         1 MOL     -0.641446
    171 H80        -9.5960    4.0150    0.1490 hn        1 MOL      0.237614
    172 H81        -8.5360    3.7130    2.6390 h1        1 MOL      0.045686
    173 H82        -9.5490    5.9020    1.4440 hc        1 MOL      0.012104
    174 H83        -7.8940    6.1330    0.8500 hc        1 MOL      0.012104
    175 H84        -7.1680    6.2920    3.1460 hc        1 MOL      0.068934
    176 H85        -8.7510    5.6760    3.7890 hc        1 MOL      0.068934
    177 N15        -5.8240    4.0860    0.5860 n         1 MOL     -0.252069
    178 C54        -6.2070    4.6080   -0.7090 c3        1 MOL      0.006740
    179 H86        -6.2990    3.7860   -1.4190 h1        1 MOL      0.029113
    180 H87        -7.1640    5.1230   -0.6250 h1        1 MOL      0.029113
    181 H88        -5.4480    5.3070   -1.0590 h1        1 MOL      0.029113
    182 H89        -4.8410    3.8700    0.6840 hn        1 MOL      0.235157
    183 Ca1         6.2750    4.5580   -0.3530 Ca        1 MOL      1.658079
    184 O25         7.4360    4.8070   -2.8480 oh        1 MOL     -0.790947
    185 H90         7.2750    5.7170   -3.1050 ho        1 MOL      0.399627
    186 H91         7.6590    4.3720   -3.6640 ho        1 MOL      0.399627
    187 O26         4.1260    4.3660   -2.2780 oh        1 MOL     -0.790947
    188 H92         3.5920    4.5230   -1.4960 ho        1 MOL      0.399627
    189 H93         3.4860    4.2920   -2.9880 ho        1 MOL      0.399627
@<TRIPOS>BOND
     1    1    2 1   
     2    1    4 1   
     3    1    5 1   
     4    1    6 1   
     5    2    3 2   
     6    2    7 1   
     7    7    8 1   
     8    7   15 1   
     9    8    9 1   
    10    8   11 1   
    11    8   16 1   
    12    9   10 2   
    13    9   19 1   
    14   11   12 1   
    15   11   17 1   
    16   11   18 1   
    17   12   13 1   
    18   12   14 1   
    19   19   20 1   
    20   19   28 1   
    21   20   21 1   
    22   20   23 1   
    23   20   29 1   
    24   21   22 2   
    25   21   41 1   
    26   23   24 1   
    27   23   30 1   
    28   23   31 1   
    29   24   25 1   
    30   24   32 1   
    31   24   33 1   
    32   25   26 1   
    33   25   34 1   
    34   25   35 1   
    35   26   27 1   
    36   26   36 1   
    37   26   37 1   
    38   27   38 1   
    39   27   39 1   
    40   27   40 1   
    41   41   42 1   
    42   41   49 1   
    43   42   43 1   
    44   42   45 1   
    45   42   50 1   
    46   43   44 2   
    47   43   53 1   
    48   45   46 1   
    49   45   51 1   
    50   45   52 1   
    51   46   47 1   
    52   46   48 1   
    53   53   54 1   
    54   53   57 1   
    55   54   55 1   
    56   54   58 1   
    57   54   59 1   
    58   55   56 2   
    59   55   60 1   
    60   60   61 1   
    61   60   68 1   
    62   61   62 1   
    63   61   64 1   
    64   61   69 1   
    65   62   63 2   
    66   62   72 1   
    67   64   65 1   
    68   64   70 1   
    69   64   71 1   
    70   65   66 1   
    71   65   67 1   
    72   72   73 1   
    73   72   76 1   
    74   73   74 1   
    75   73   77 1   
    76   73   78 1   
    77   74   75 2   
    78   74   79 1   
    79   79   80 1   
    80   79   86 1   
    81   80   81 1   
    82   80   83 1   
    83   80   87 1   
    84   81   82 2   
    85   81   93 1   
    86   83   84 1   
    87   83   85 1   
    88   83   88 1   
    89   84   90 1   
    90   84   91 1   
    91   84   92 1   
    92   85   89 1   
    93   93   94 1   
    94   93  101 1   
    95   94   95 1   
    96   94   97 1   
    97   94  102 1   
    98   95   96 2   
    99   95  112 1   
   100   97   98 1   
   101   97   99 1   
   102   97  103 1   
   103   98  100 1   
   104   98  104 1   
   105   98  105 1   
   106   99  106 1   
   107   99  107 1   
   108   99  108 1   
   109  100  109 1   
   110  100  110 1   
   111  100  111 1   
   112  112  113 1   
   113  112  119 1   
   114  113  114 1   
   115  113  116 1   
   116  113  120 1   
   117  114  115 2   
   118  114  126 1   
   119  116  117 1   
   120  116  118 1   
   121  116  121 1   
   122  117  123 1   
   123  117  124 1   
   124  117  125 1   
   125  118  122 1   
   126  126  127 1   
   127  126  133 1   
   128  127  128 1   
   129  127  130 1   
   130  127  134 1   
   131  128  129 2   
   132  128  140 1   
   133  130  131 1   
   134  130  132 1   
   135  130  135 1   
   136  131  137 1   
   137  131  138 1   
   138  131  139 1   
   139  132  136 1   
   140  140  141 1   
   141  140  149 1   
   142  141  142 1   
   143  141  144 1   
   144  141  150 1   
   145  142  143 2   
   146  142  162 1   
   147  144  145 1   
   148  144  151 1   
   149  144  152 1   
   150  145  146 1   
   151  145  153 1   
   152  145  154 1   
   153  146  147 1   
   154  146  155 1   
   155  146  156 1   
   156  147  148 1   
   157  147  157 1   
   158  147  158 1   
   159  148  159 1   
   160  148  160 1   
   161  148  161 1   
   162  162  163 1   
   163  162  171 1   
   164  163  164 1   
   165  163  166 1   
   166  163  172 1   
   167  164  165 2   
   168  164  177 1   
   169  166  167 1   
   170  166  173 1   
   171  166  174 1   
   172  167  168 1   
   173  167  175 1   
   174  167  176 1   
   175  168  169 1   
   176  168  170 1   
   177  177  178 1   
   178  177  182 1   
   179  178  179 1   
   180  178  180 1   
   181  178  181 1   
   182  184  185 1   
   183  184  186 1   
   184  187  188 1   
   185  187  189 1   
@<TRIPOS>SUBSTRUCTURE
     1 MOL         1 TEMP              0 ****  ****    0 ROOT
