@<TRIPOS>MOLECULE
MOL
  201   193     1     0     0
SMALL
resp


@<TRIPOS>ATOM
      1 C1          5.7820    8.3970   -4.1940 c3        1 MOL     -0.363687
      2 C2          6.2500    7.9480   -2.7860 c         1 MOL      0.695337
      3 O1          7.3410    8.2450   -2.3200 o         1 MOL     -0.581240
      4 H1          6.6390    8.7530   -4.7650 hc        1 MOL      0.097068
      5 H2          5.3260    7.5530   -4.7120 hc        1 MOL      0.097068
      6 H3          5.0520    9.2010   -4.0960 hc        1 MOL      0.097068
      7 N1          5.4590    7.1040   -2.0510 n         1 MOL     -0.619663
      8 C3          5.7680    6.4340   -0.8130 c3        1 MOL      0.248767
      9 C4          5.2880    4.9540   -0.8660 c         1 MOL      0.402920
     10 O2          4.2950    4.5610   -1.4310 o         1 MOL     -0.493597
     11 C5          5.2300    7.2180    0.4390 c3        1 MOL     -0.191344
     12 C6          3.6930    7.3290    0.4840 c         1 MOL      0.681851
     13 O3          3.2380    6.9680    1.5970 o         1 MOL     -0.649207
     14 O4          2.9900    7.6700   -0.4720 o         1 MOL     -0.649207
     15 H4          4.6150    6.7390   -2.4670 hn        1 MOL      0.321324
     16 H5          6.8550    6.4960   -0.7230 h1        1 MOL     -0.000006
     17 H6          5.7640    8.1600    0.3440 hc        1 MOL      0.035298
     18 H7          5.6250    6.7630    1.3460 hc        1 MOL      0.035298
     19 N2          6.0500    4.0660   -0.1860 n         1 MOL     -0.336468
     20 C7          6.0060    2.5830   -0.3090 c3        1 MOL      0.050224
     21 C8          4.8970    1.7630    0.4040 c         1 MOL      0.558848
     22 O5          5.1760    0.7050    1.0030 o         1 MOL     -0.525201
     23 C9          7.4390    2.0670    0.0270 c3        1 MOL     -0.319912
     24 C10         8.6330    2.4680   -0.9140 c3        1 MOL      0.134788
     25 C11         8.6810    1.5370   -2.1220 c3        1 MOL     -0.029685
     26 C12         9.6210    2.0380   -3.2140 c3        1 MOL      0.063101
     27 N3          9.4190    1.1540   -4.4040 n4        1 MOL     -0.408602
     28 H8          6.6780    4.4330    0.5170 hn        1 MOL      0.265764
     29 H9          6.0000    2.3300   -1.3710 h1        1 MOL      0.036226
     30 H10         7.4610    0.9840    0.0970 hc        1 MOL      0.116150
     31 H11         7.7220    2.5290    0.9810 hc        1 MOL      0.116150
     32 H12         9.5970    2.3470   -0.4260 hc        1 MOL     -0.030321
     33 H13         8.4770    3.5010   -1.2260 hc        1 MOL     -0.030321
     34 H14         7.6630    1.4100   -2.4950 hc        1 MOL      0.049127
     35 H15         9.0360    0.5900   -1.7290 hc        1 MOL      0.049127
     36 H16        10.6290    2.1510   -2.8300 hx        1 MOL      0.076943
     37 H17         9.3780    3.0330   -3.5860 hx        1 MOL      0.076943
     38 H18        10.0690    1.4570   -5.1260 hn        1 MOL      0.306037
     39 H19         9.6650    0.2180   -4.1240 hn        1 MOL      0.306037
     40 H20         8.4780    1.2040   -4.7490 hn        1 MOL      0.306037
     41 N4          3.7600    2.3780    0.4820 n         1 MOL     -0.596036
     42 C13         2.5190    1.9150    1.2090 c3        1 MOL      0.238786
     43 C14         2.0200    0.6430    0.5530 c         1 MOL      0.560644
     44 O6          1.8600    0.7200   -0.6150 o         1 MOL     -0.571978
     45 C15         1.4660    3.0290    1.1180 c3        1 MOL     -0.102875
     46 C16         0.1920    2.6770    1.9300 c         1 MOL      0.778869
     47 O7          0.2060    2.5110    3.1450 o         1 MOL     -0.811239
     48 O8         -0.9000    2.5000    1.3520 o         1 MOL     -0.811239
     49 H21         3.7400    3.1900   -0.1070 hn        1 MOL      0.341044
     50 H22         2.7580    1.7560    2.2590 h1        1 MOL      0.056625
     51 H23         1.1420    3.1320    0.0840 hc        1 MOL      0.052214
     52 H24         1.9770    3.9210    1.4880 hc        1 MOL      0.052214
     53 N5          1.5700   -0.4920    1.1770 n         1 MOL     -0.476430
     54 C17         1.6840   -0.9180    2.5840 c3        1 MOL     -0.139626
     55 C18         2.7040   -2.0320    2.7040 c         1 MOL      0.615783
     56 O9          3.8990   -2.0070    2.2690 o         1 MOL     -0.522312
     57 H25         1.2020   -1.1340    0.4830 hn        1 MOL      0.332884
     58 H26         0.7410   -1.2920    2.9750 h1        1 MOL      0.103921
     59 H27         2.1260   -0.1360    3.1910 h1        1 MOL      0.103921
     60 N6          2.3280   -3.0520    3.4620 n         1 MOL     -0.485891
     61 C19         3.2160   -4.1920    3.7530 c3        1 MOL      0.364769
     62 C20         2.7050   -5.4990    3.0560 c         1 MOL      0.298197
     63 O10         1.5000   -5.5980    2.7570 o         1 MOL     -0.399212
     64 C21         3.2190   -4.2850    5.3010 c3        1 MOL     -0.141649
     65 C22         3.3650   -2.9240    6.0730 c         1 MOL      0.626356
     66 O11         4.5070   -2.4880    6.3470 o         1 MOL     -0.626723
     67 O12         2.3450   -2.2030    6.3360 o         1 MOL     -0.626723
     68 H28         1.4250   -3.0340    3.9080 hn        1 MOL      0.239834
     69 H29         4.2090   -3.9520    3.3830 h1        1 MOL     -0.005729
     70 H30         4.0460   -4.9270    5.6160 hc        1 MOL     -0.012987
     71 H31         2.2710   -4.7800    5.5360 hc        1 MOL     -0.012987
     72 N7          3.5890   -6.4390    2.7860 n         1 MOL     -0.436620
     73 C23         3.3330   -7.6530    1.9140 c3        1 MOL      0.130986
     74 C24         3.1620   -7.3070    0.4360 c         1 MOL      0.411225
     75 O13         2.3120   -7.8480   -0.2340 o         1 MOL     -0.502562
     76 H32         4.5430   -6.3010    3.0710 hn        1 MOL      0.291241
     77 H33         2.4640   -8.2060    2.2460 h1        1 MOL      0.050212
     78 H34         4.1120   -8.3950    2.1000 h1        1 MOL      0.050212
     79 N8          3.8600   -6.2880   -0.0640 n         1 MOL     -0.255610
     80 C25         3.6610   -5.7480   -1.4550 c3        1 MOL     -0.139833
     81 C26         3.0600   -4.4200   -1.5940 c         1 MOL      0.492234
     82 O14         3.3590   -3.5420   -0.7340 o         1 MOL     -0.533565
     83 C27         4.9290   -5.9040   -2.3120 c3        1 MOL      0.481713
     84 C28         6.0950   -4.9990   -1.8710 c3        1 MOL     -0.529569
     85 O15         5.4660   -7.2680   -2.3270 oh        1 MOL     -0.630464
     86 H35         4.7280   -6.0280    0.3870 hn        1 MOL      0.247974
     87 H36         3.0070   -6.4350   -1.9980 h1        1 MOL      0.059883
     88 H37         4.7080   -5.7370   -3.3730 h1        1 MOL     -0.036409
     89 H38         5.7610   -7.3790   -3.2290 ho        1 MOL      0.371415
     90 H39         5.8860   -4.0780   -2.4120 hc        1 MOL      0.138753
     91 H40         6.1280   -4.9720   -0.7800 hc        1 MOL      0.138753
     92 H41         7.0260   -5.4640   -2.2010 hc        1 MOL      0.138753
     93 N9          2.2180   -4.2170   -2.5840 n         1 MOL     -0.312818
     94 C29         1.6010   -2.8890   -2.7380 c3        1 MOL      0.014190
     95 C30         0.3920   -2.7380   -1.7690 c         1 MOL      0.448842
     96 O16         0.2470   -1.6400   -1.1810 o         1 MOL     -0.515001
     97 C31         1.0890   -2.6700   -4.1750 c3        1 MOL     -0.013274
     98 C32         2.0190   -3.0760   -5.3000 c3        1 MOL      0.146005
     99 C33         0.7610   -1.2130   -4.5570 c3        1 MOL     -0.334187
    100 C34         3.4940   -2.7310   -5.3430 c3        1 MOL     -0.562332
    101 H42         2.0060   -4.9950   -3.1940 hn        1 MOL      0.250196
    102 H43         2.2970   -2.0810   -2.5410 h1        1 MOL      0.139592
    103 H44         0.1400   -3.2060   -4.2190 hc        1 MOL      0.000388
    104 H45         1.6130   -2.6900   -6.2370 hc        1 MOL     -0.010657
    105 H46         1.9570   -4.1540   -5.4480 hc        1 MOL     -0.010657
    106 H47         1.6400   -0.5840   -4.6510 hc        1 MOL      0.105156
    107 H48         0.2760   -1.2200   -5.5290 hc        1 MOL      0.105156
    108 H49         0.0110   -0.8870   -3.8260 hc        1 MOL      0.105156
    109 H50         3.6870   -2.8580   -6.4090 hc        1 MOL      0.148955
    110 H51         3.5890   -1.6540   -5.2230 hc        1 MOL      0.148955
    111 H52         4.1110   -3.3850   -4.7160 hc        1 MOL      0.148955
    112 N10        -0.4310   -3.7880   -1.4770 n         1 MOL     -0.107891
    113 C35        -1.5880   -3.7620   -0.5740 c3        1 MOL     -0.197564
    114 C36        -2.8500   -4.1780   -1.2980 c         1 MOL      0.478617
    115 O17        -2.7850   -5.1630   -1.9670 o         1 MOL     -0.508900
    116 C37        -1.2710   -4.6160    0.6300 c3        1 MOL      0.429574
    117 C38        -0.3920   -5.8150    0.3690 c3        1 MOL     -0.295798
    118 O18        -0.6980   -4.0140    1.7510 oh        1 MOL     -0.620637
    119 H53        -0.3630   -4.6000   -2.0780 hn        1 MOL      0.190242
    120 H54        -1.7530   -2.7760   -0.1240 h1        1 MOL      0.094773
    121 H55        -2.1970   -5.0210    1.0340 h1        1 MOL     -0.035223
    122 H56        -0.0780   -4.6680    2.0820 ho        1 MOL      0.337778
    123 H57        -0.4850   -6.5100    1.2110 hc        1 MOL      0.068196
    124 H58        -0.8320   -6.3120   -0.4910 hc        1 MOL      0.068196
    125 H59         0.5990   -5.5910   -0.0060 hc        1 MOL      0.068196
    126 N11        -3.9220   -3.3990   -1.3230 n         1 MOL     -0.343431
    127 C39        -5.1300   -3.8390   -2.0080 c3        1 MOL     -0.149131
    128 C40        -6.0440   -2.7630   -2.4750 c         1 MOL      0.680213
    129 O19        -6.2940   -2.6090   -3.6830 o         1 MOL     -0.559247
    130 C41        -5.8980   -4.9760   -1.2440 c3        1 MOL      0.288716
    131 C42        -7.1670   -5.4410   -1.8650 c3        1 MOL     -0.347128
    132 O20        -6.3140   -4.4520    0.0010 oh        1 MOL     -0.606644
    133 H60        -3.9440   -2.4930   -0.8840 hn        1 MOL      0.244744
    134 H61        -4.8720   -4.3480   -2.9300 h1        1 MOL      0.108576
    135 H62        -5.2130   -5.7880   -1.0320 h1        1 MOL      0.065306
    136 H63        -5.7510   -4.8270    0.6890 ho        1 MOL      0.391827
    137 H64        -7.4610   -6.3740   -1.3800 hc        1 MOL      0.096606
    138 H65        -7.9450   -4.6750   -1.8950 hc        1 MOL      0.096606
    139 H66        -6.9980   -5.6300   -2.9220 hc        1 MOL      0.096606
    140 N12        -6.5780   -1.9320   -1.5120 n         1 MOL     -0.489915
    141 C43        -7.1050   -0.6130   -1.7100 c3        1 MOL      0.034008
    142 C44        -6.3540    0.3380   -0.7780 c         1 MOL      0.652816
    143 O21        -6.0170    0.0090    0.4100 o         1 MOL     -0.544360
    144 C45        -8.5880   -0.7570   -1.3910 c3        1 MOL     -0.098185
    145 C46        -9.3800    0.5070   -1.6690 c3        1 MOL     -0.068874
    146 C47       -10.8660    0.3560   -1.4640 c3        1 MOL     -0.134637
    147 C48       -11.7320    1.4360   -2.2170 c3        1 MOL      0.133958
    148 N13       -13.1410    1.1400   -2.0600 n4        1 MOL     -0.264867
    149 H67        -6.3780   -2.1900   -0.5610 hn        1 MOL      0.246940
    150 H68        -6.8980   -0.2560   -2.7160 h1        1 MOL      0.081472
    151 H69        -8.6540   -1.0960   -0.3580 hc        1 MOL      0.086785
    152 H70        -8.9840   -1.5620   -2.0040 hc        1 MOL      0.086785
    153 H71        -9.2070    0.7720   -2.7200 hc        1 MOL      0.054498
    154 H72        -8.9950    1.2210   -0.9370 hc        1 MOL      0.054498
    155 H73       -11.0650    0.4310   -0.4000 hc        1 MOL      0.051358
    156 H74       -11.2640   -0.5890   -1.8380 hc        1 MOL      0.051358
    157 H75       -11.4740    1.4130   -3.2710 hx        1 MOL      0.054206
    158 H76       -11.4740    2.4780   -2.0040 hx        1 MOL      0.054206
    159 H77       -13.3790    0.2020   -2.3430 hn        1 MOL      0.227551
    160 H78       -13.3490    1.3060   -1.0930 hn        1 MOL      0.227551
    161 H79       -13.6950    1.7710   -2.6170 hn        1 MOL      0.227551
    162 N14        -6.1960    1.5900   -1.1860 n         1 MOL     -0.691001
    163 C49        -5.8250    2.7330   -0.4200 c3        1 MOL      0.324657
    164 C50        -4.3680    2.5410    0.0980 c         1 MOL      0.339958
    165 O22        -4.1640    2.5230    1.2930 o         1 MOL     -0.653219
    166 C51        -6.0330    4.1020   -1.1280 c3        1 MOL     -0.165379
    167 C52        -5.6550    5.3020   -0.2550 c3        1 MOL     -0.237167
    168 C53        -6.1910    6.5790   -0.9400 c         1 MOL      0.689939
    169 O23        -5.9860    6.7550   -2.1640 o         1 MOL     -0.692088
    170 O24        -6.8620    7.4090   -0.2350 o         1 MOL     -0.692088
    171 H80        -6.4870    1.8030   -2.1340 hn        1 MOL      0.285439
    172 H81        -6.4350    2.7580    0.4850 h1        1 MOL      0.045955
    173 H82        -7.1050    4.1260   -1.3030 hc        1 MOL      0.072601
    174 H83        -5.5520    4.1620   -2.1020 hc        1 MOL      0.072601
    175 H84        -4.5740    5.4470   -0.2730 hc        1 MOL      0.067231
    176 H85        -6.0180    5.0930    0.7450 hc        1 MOL      0.067231
    177 N15        -3.3300    2.1750   -0.6860 n         1 MOL     -0.258632
    178 C54        -3.1190    2.4600   -2.1280 c3        1 MOL     -0.072953
    179 H86        -2.1450    2.9290   -2.2660 h1        1 MOL      0.075148
    180 H87        -3.1560    1.5290   -2.6930 h1        1 MOL      0.075148
    181 H88        -3.8990    3.1320   -2.4850 h1        1 MOL      0.075148
    182 H89        -2.5500    1.6740   -0.2780 hn        1 MOL      0.305552
    183 Ca1        -2.5760    2.6000    3.3200 Ca        1 MOL      1.830875
    184 O25        -2.3160    4.0830    5.7330 oh        1 MOL     -0.843239
    185 H90        -2.2300    5.0400    5.7330 ho        1 MOL      0.423149
    186 H91        -1.8590    3.8060    6.5340 ho        1 MOL      0.423149
    187 O26        -5.0170    4.4270    3.6140 oh        1 MOL     -0.843239
    188 H92        -5.3640    5.3140    3.7440 ho        1 MOL      0.423149
    189 H93        -5.8040    3.8780    3.5140 ho        1 MOL      0.423149
    190 O27        -2.0140    5.1480    2.6080 oh        1 MOL     -0.843239
    191 H94        -2.7080    5.8000    2.7400 ho        1 MOL      0.423149
    192 H95        -1.2910    5.6500    2.2390 ho        1 MOL      0.423149
    193 O28        -2.0770    0.0010    2.5990 oh        1 MOL     -0.843239
    194 H96        -1.6760    0.0200    1.7270 ho        1 MOL      0.423149
    195 H97        -2.0210   -0.9050    2.8720 ho        1 MOL      0.423149
    196 O29        -1.5610    1.1390    5.3990 oh        1 MOL     -0.843239
    197 H98        -1.9470    0.6740    6.1340 ho        1 MOL      0.423149
    198 H99        -0.6540    1.2910    5.6560 ho        1 MOL      0.423149
    199 O30        -4.7070    1.8150    4.7820 oh        1 MOL     -0.843239
    200 H100       -4.6420    1.3120    5.5930 ho        1 MOL      0.423149
    201 H101       -5.6180    2.0750    4.7250 ho        1 MOL      0.423149
@<TRIPOS>BOND
     1    1    2 1   
     2    1    4 1   
     3    1    5 1   
     4    1    6 1   
     5    2    3 2   
     6    2    7 1   
     7    7    8 1   
     8    7   15 1   
     9    8    9 1   
    10    8   11 1   
    11    8   16 1   
    12    9   10 2   
    13    9   19 1   
    14   11   12 1   
    15   11   17 1   
    16   11   18 1   
    17   12   13 1   
    18   12   14 1   
    19   19   20 1   
    20   19   28 1   
    21   20   21 1   
    22   20   23 1   
    23   20   29 1   
    24   21   22 2   
    25   21   41 1   
    26   23   24 1   
    27   23   30 1   
    28   23   31 1   
    29   24   25 1   
    30   24   32 1   
    31   24   33 1   
    32   25   26 1   
    33   25   34 1   
    34   25   35 1   
    35   26   27 1   
    36   26   36 1   
    37   26   37 1   
    38   27   38 1   
    39   27   39 1   
    40   27   40 1   
    41   41   42 1   
    42   41   49 1   
    43   42   43 1   
    44   42   45 1   
    45   42   50 1   
    46   43   44 2   
    47   43   53 1   
    48   45   46 1   
    49   45   51 1   
    50   45   52 1   
    51   46   47 1   
    52   46   48 1   
    53   53   54 1   
    54   53   57 1   
    55   54   55 1   
    56   54   58 1   
    57   54   59 1   
    58   55   56 2   
    59   55   60 1   
    60   60   61 1   
    61   60   68 1   
    62   61   62 1   
    63   61   64 1   
    64   61   69 1   
    65   62   63 2   
    66   62   72 1   
    67   64   65 1   
    68   64   70 1   
    69   64   71 1   
    70   65   66 1   
    71   65   67 1   
    72   72   73 1   
    73   72   76 1   
    74   73   74 1   
    75   73   77 1   
    76   73   78 1   
    77   74   75 2   
    78   74   79 1   
    79   79   80 1   
    80   79   86 1   
    81   80   81 1   
    82   80   83 1   
    83   80   87 1   
    84   81   82 2   
    85   81   93 1   
    86   83   84 1   
    87   83   85 1   
    88   83   88 1   
    89   84   90 1   
    90   84   91 1   
    91   84   92 1   
    92   85   89 1   
    93   93   94 1   
    94   93  101 1   
    95   94   95 1   
    96   94   97 1   
    97   94  102 1   
    98   95   96 2   
    99   95  112 1   
   100   97   98 1   
   101   97   99 1   
   102   97  103 1   
   103   98  100 1   
   104   98  104 1   
   105   98  105 1   
   106   99  106 1   
   107   99  107 1   
   108   99  108 1   
   109  100  109 1   
   110  100  110 1   
   111  100  111 1   
   112  112  113 1   
   113  112  119 1   
   114  113  114 1   
   115  113  116 1   
   116  113  120 1   
   117  114  115 2   
   118  114  126 1   
   119  116  117 1   
   120  116  118 1   
   121  116  121 1   
   122  117  123 1   
   123  117  124 1   
   124  117  125 1   
   125  118  122 1   
   126  126  127 1   
   127  126  133 1   
   128  127  128 1   
   129  127  130 1   
   130  127  134 1   
   131  128  129 2   
   132  128  140 1   
   133  130  131 1   
   134  130  132 1   
   135  130  135 1   
   136  131  137 1   
   137  131  138 1   
   138  131  139 1   
   139  132  136 1   
   140  140  141 1   
   141  140  149 1   
   142  141  142 1   
   143  141  144 1   
   144  141  150 1   
   145  142  143 2   
   146  142  162 1   
   147  144  145 1   
   148  144  151 1   
   149  144  152 1   
   150  145  146 1   
   151  145  153 1   
   152  145  154 1   
   153  146  147 1   
   154  146  155 1   
   155  146  156 1   
   156  147  148 1   
   157  147  157 1   
   158  147  158 1   
   159  148  159 1   
   160  148  160 1   
   161  148  161 1   
   162  162  163 1   
   163  162  171 1   
   164  163  164 1   
   165  163  166 1   
   166  163  172 1   
   167  164  165 2   
   168  164  177 1   
   169  166  167 1   
   170  166  173 1   
   171  166  174 1   
   172  167  168 1   
   173  167  175 1   
   174  167  176 1   
   175  168  169 1   
   176  168  170 1   
   177  177  178 1   
   178  177  182 1   
   179  178  179 1   
   180  178  180 1   
   181  178  181 1   
   182  184  185 1   
   183  184  186 1   
   184  187  188 1   
   185  187  189 1   
   186  190  191 1   
   187  190  192 1   
   188  193  194 1   
   189  193  195 1   
   190  196  197 1   
   191  196  198 1   
   192  199  200 1   
   193  199  201 1   
@<TRIPOS>SUBSTRUCTURE
     1 MOL         1 TEMP              0 ****  ****    0 ROOT
