@<TRIPOS>MOLECULE
MOL
  189   185     1     0     0
SMALL
resp


@<TRIPOS>ATOM
      1 C1         -9.3150   -0.5940   -2.2530 c3        1 MOL     -0.522456
      2 C2         -8.1300   -0.4900   -1.3210 c         1 MOL      0.849833
      3 O1         -6.9960   -0.4010   -1.7930 o         1 MOL     -0.668557
      4 H1         -8.9710   -0.8840   -3.2460 hc        1 MOL      0.130111
      5 H2        -10.0100   -1.3440   -1.8760 hc        1 MOL      0.130111
      6 H3         -9.8180    0.3710   -2.3120 hc        1 MOL      0.130111
      7 N1         -8.3720   -0.7350   -0.0360 n         1 MOL     -0.750426
      8 C3         -7.4630   -0.7980    1.0780 c3        1 MOL      0.009442
      9 C4         -6.9500   -2.2700    1.3300 c         1 MOL      0.607170
     10 O2         -6.8620   -2.6510    2.4940 o         1 MOL     -0.495419
     11 C5         -8.1160   -0.1850    2.3180 c3        1 MOL     -0.301478
     12 C6         -8.5680    1.2660    2.1450 c         1 MOL      0.824880
     13 O3         -9.8010    1.4860    2.2310 o         1 MOL     -0.692592
     14 O4         -7.7030    2.1190    1.9370 o         1 MOL     -0.692592
     15 H4         -9.3380   -0.7430    0.2730 hn        1 MOL      0.381414
     16 H5         -6.5670   -0.2060    0.9110 h1        1 MOL      0.245798
     17 H6         -7.5080   -0.2840    3.2080 hc        1 MOL      0.066741
     18 H7         -9.0320   -0.7670    2.4640 hc        1 MOL      0.066741
     19 N2         -6.5460   -2.9850    0.3170 n         1 MOL     -0.435986
     20 C7         -5.6430   -4.1510    0.3910 c3        1 MOL      0.113465
     21 C8         -4.3250   -3.9300    1.1380 c         1 MOL      0.291173
     22 O5         -4.0260   -4.5650    2.1430 o         1 MOL     -0.485139
     23 C9         -5.4220   -4.8690   -0.9680 c3        1 MOL     -0.023687
     24 C10        -6.7120   -5.1360   -1.7810 c3        1 MOL     -0.055949
     25 C11        -7.7400   -5.9150   -1.0020 c3        1 MOL      0.002146
     26 C12        -9.0540   -6.1410   -1.7260 c3        1 MOL     -0.002476
     27 N3         -8.8280   -6.6880   -3.1170 n4        1 MOL     -0.177192
     28 H8         -6.6710   -2.5540   -0.5940 hn        1 MOL      0.232415
     29 H9         -6.1710   -4.8900    0.9840 h1        1 MOL      0.046823
     30 H10        -5.0190   -5.8600   -0.7680 hc        1 MOL      0.037666
     31 H11        -4.7260   -4.2980   -1.5910 hc        1 MOL      0.037666
     32 H12        -6.3960   -5.6650   -2.6820 hc        1 MOL      0.006506
     33 H13        -7.1630   -4.1830   -2.0350 hc        1 MOL      0.006506
     34 H14        -7.8570   -5.3540   -0.0720 hc        1 MOL      0.044888
     35 H15        -7.3630   -6.8810   -0.6660 hc        1 MOL      0.044888
     36 H16        -9.6980   -5.2610   -1.6940 hx        1 MOL      0.075740
     37 H17        -9.5940   -6.9390   -1.2130 hx        1 MOL      0.075740
     38 H18        -8.5280   -7.6460   -3.1600 hn        1 MOL      0.236313
     39 H19        -9.6100   -6.5970   -3.7540 hn        1 MOL      0.236313
     40 H20        -8.0890   -6.0930   -3.4710 hn        1 MOL      0.236313
     41 N4         -3.5510   -2.8300    0.8190 n         1 MOL     -0.013124
     42 C13        -3.6490   -1.9660   -0.3410 c3        1 MOL     -0.460249
     43 C14        -3.7790   -0.5490    0.1700 c         1 MOL      0.214977
     44 O6         -3.5050   -0.1950    1.3510 o         1 MOL     -0.436455
     45 C15        -2.4420   -2.2870   -1.2460 c3        1 MOL     -0.080730
     46 C16        -1.1030   -2.2090   -0.4830 c         1 MOL      0.620302
     47 O7         -1.0420   -1.5740    0.5970 o         1 MOL     -0.626602
     48 O8         -0.1760   -2.8840   -0.9500 o         1 MOL     -0.626602
     49 H21        -2.8080   -2.7210    1.4890 hn        1 MOL      0.253931
     50 H22        -4.5370   -2.1370   -0.9440 h1        1 MOL      0.227276
     51 H23        -2.4300   -1.5040   -2.0050 hc        1 MOL      0.052837
     52 H24        -2.5090   -3.2790   -1.6840 hc        1 MOL      0.052837
     53 N5         -4.1620    0.3360   -0.7360 n         1 MOL     -0.125952
     54 C17        -4.5040    1.6980   -0.5200 c3        1 MOL     -0.147922
     55 C18        -3.4640    2.5260    0.2270 c         1 MOL      0.707765
     56 O9         -2.2820    2.1540    0.2280 o         1 MOL     -0.747213
     57 H25        -4.5700   -0.0620   -1.5730 hn        1 MOL      0.272342
     58 H26        -5.4180    1.6990    0.0770 h1        1 MOL      0.077582
     59 H27        -4.6240    2.2590   -1.4410 h1        1 MOL      0.077582
     60 N6         -3.8180    3.7120    0.7650 n         1 MOL     -0.421950
     61 C19        -2.8550    4.6520    1.3050 c3        1 MOL      0.225696
     62 C20        -3.1970    6.1420    0.9800 c         1 MOL      0.418451
     63 O10        -4.4000    6.4740    0.8610 o         1 MOL     -0.498611
     64 C21        -2.7680    4.3670    2.8050 c3        1 MOL     -0.177252
     65 C22        -2.3270    2.9920    3.1910 c         1 MOL      0.596173
     66 O11        -1.1820    2.5600    2.9390 o         1 MOL     -0.631901
     67 O12        -3.1280    2.3090    3.8760 o         1 MOL     -0.631901
     68 H28        -4.7780    4.0210    0.6920 hn        1 MOL      0.294467
     69 H29        -1.8800    4.4420    0.8740 h1        1 MOL      0.020227
     70 H30        -3.7320    4.6590    3.2080 hc        1 MOL      0.056717
     71 H31        -1.9590    4.9530    3.2510 hc        1 MOL      0.056717
     72 N7         -2.2170    7.0970    0.9990 n         1 MOL     -0.482811
     73 C23        -0.6990    6.9750    1.0680 c3        1 MOL      0.102251
     74 C24         0.0080    6.3910   -0.1210 c         1 MOL      0.529010
     75 O13        -0.5230    6.3200   -1.2570 o         1 MOL     -0.512251
     76 H32        -2.5250    8.0550    0.8560 hn        1 MOL      0.323419
     77 H33        -0.4890    6.2720    1.8790 h1        1 MOL      0.005669
     78 H34        -0.2210    7.9310    1.2900 h1        1 MOL      0.005669
     79 N8          1.0970    5.6950    0.1980 n         1 MOL     -0.431623
     80 C25         1.8710    4.8280   -0.7610 c3        1 MOL     -0.305067
     81 C26         1.1160    3.5400   -1.1040 c         1 MOL      1.030257
     82 O14         0.6570    2.8110   -0.2350 o         1 MOL     -0.765939
     83 C27         3.1860    4.4830   -0.1680 c3        1 MOL      0.627967
     84 C28         4.1880    5.6020   -0.0960 c3        1 MOL     -0.251300
     85 O15         3.9230    3.5960   -0.9020 oh        1 MOL     -0.678519
     86 H35         1.4390    5.9090    1.1290 hn        1 MOL      0.262223
     87 H36         1.9600    5.3340   -1.7230 h1        1 MOL      0.109507
     88 H37         3.1290    4.1080    0.8510 h1        1 MOL     -0.065276
     89 H38         3.5930    2.7360   -0.6550 ho        1 MOL      0.385835
     90 H39         3.7460    6.4660    0.4010 hc        1 MOL      0.059720
     91 H40         5.1320    5.3440    0.3940 hc        1 MOL      0.059720
     92 H41         4.4770    5.9320   -1.0870 hc        1 MOL      0.059720
     93 N9          1.1410    3.2140   -2.4640 n         1 MOL     -0.742068
     94 C29         0.4980    2.0120   -3.1010 c3        1 MOL      0.078295
     95 C30         0.8750    0.5810   -2.5940 c         1 MOL      0.440441
     96 O16         0.2420    0.1380   -1.6490 o         1 MOL     -0.401120
     97 C31        -1.0440    2.1940   -3.2110 c3        1 MOL     -0.006877
     98 C32        -1.3610    3.6030   -3.7100 c3        1 MOL      0.293034
     99 C33        -1.5790    1.1060   -4.1620 c3        1 MOL     -0.453765
    100 C34        -2.8180    3.8830   -3.6210 c3        1 MOL     -0.170204
    101 H42         1.6010    3.8640   -3.0870 hn        1 MOL      0.330083
    102 H43         0.8970    2.1650   -4.0980 h1        1 MOL      0.067747
    103 H44        -1.4860    2.1490   -2.2180 hc        1 MOL      0.088070
    104 H45        -1.0510    3.7290   -4.7460 hc        1 MOL     -0.054900
    105 H46        -0.8410    4.4210   -3.2120 hc        1 MOL     -0.054900
    106 H47        -2.6020    0.9000   -3.8490 hc        1 MOL      0.115266
    107 H48        -1.5540    1.4900   -5.1830 hc        1 MOL      0.115266
    108 H49        -1.1870    0.0850   -4.0990 hc        1 MOL      0.115266
    109 H50        -3.4430    3.1450   -4.1200 hc        1 MOL      0.024381
    110 H51        -3.1680    3.9000   -2.5890 hc        1 MOL      0.024381
    111 H52        -2.9780    4.8450   -4.1080 hc        1 MOL      0.024381
    112 N10         1.9940    0.0020   -3.0610 n         1 MOL     -0.467991
    113 C35         2.5550   -1.2450   -2.6290 c3        1 MOL     -0.097767
    114 C36         4.0830   -1.4620   -2.5350 c         1 MOL      0.689965
    115 O17         4.5720   -2.4710   -1.9520 o         1 MOL     -0.599742
    116 C37         2.0340   -2.3090   -3.6000 c3        1 MOL      0.430617
    117 C38         2.3470   -1.9970   -5.0700 c3        1 MOL     -0.364308
    118 O18         0.6110   -2.4410   -3.4910 oh        1 MOL     -0.613318
    119 H53         2.4490    0.4410   -3.8450 hn        1 MOL      0.285887
    120 H54         2.1250   -1.5260   -1.6650 h1        1 MOL      0.099451
    121 H55         2.5110   -3.2540   -3.3390 h1        1 MOL     -0.022776
    122 H56         0.3270   -2.4730   -2.5740 ho        1 MOL      0.351443
    123 H57         3.3880   -1.7050   -5.2010 hc        1 MOL      0.084307
    124 H58         2.0150   -2.8980   -5.5840 hc        1 MOL      0.084307
    125 H59         1.6740   -1.2280   -5.4390 hc        1 MOL      0.084307
    126 N11         4.9890   -0.5820   -3.0180 n         1 MOL     -0.413230
    127 C39         6.4250   -0.6960   -2.8370 c3        1 MOL     -0.239780
    128 C40         6.6520   -0.7240   -1.3440 c         1 MOL      0.420376
    129 O19         6.3650    0.2710   -0.6550 o         1 MOL     -0.468343
    130 C41         7.0970    0.5960   -3.4740 c3        1 MOL      0.367753
    131 C42         8.5870    0.4380   -3.2940 c3        1 MOL     -0.454013
    132 O20         6.7530    0.7110   -4.8290 oh        1 MOL     -0.609712
    133 H60         4.6920    0.3270   -3.3480 hn        1 MOL      0.284536
    134 H61         6.8080   -1.5830   -3.3450 h1        1 MOL      0.136951
    135 H62         6.7400    1.5370   -3.0630 h1        1 MOL      0.101933
    136 H63         7.2230    0.0250   -5.3130 ho        1 MOL      0.394845
    137 H64         9.0410   -0.4380   -3.7390 hc        1 MOL      0.122364
    138 H65         9.0440    1.3260   -3.7390 hc        1 MOL      0.122364
    139 H66         8.7240    0.4330   -2.2060 hc        1 MOL      0.122364
    140 N12         7.2260   -1.8220   -0.7590 n         1 MOL     -0.238063
    141 C43         7.4980   -1.9290    0.7250 c3        1 MOL      0.098570
    142 C44         6.2490   -1.4480    1.5330 c         1 MOL      0.504177
    143 O21         6.3710   -0.4550    2.2560 o         1 MOL     -0.502444
    144 C45         8.7960   -1.1610    0.9840 c3        1 MOL     -0.404488
    145 C46        10.0750   -1.8820    0.3250 c3        1 MOL      0.181490
    146 C47        11.3590   -1.4170    1.0080 c3        1 MOL     -0.121090
    147 C48        12.6570   -2.0400    0.4610 c3        1 MOL      0.077772
    148 N13        12.9230   -3.3500    1.0430 n4        1 MOL     -0.300976
    149 H67         7.6620   -2.4870   -1.3870 hn        1 MOL      0.193562
    150 H68         7.6850   -2.9850    0.9410 h1        1 MOL      0.042491
    151 H69         9.0610   -1.2350    2.0350 hc        1 MOL      0.146450
    152 H70         8.7430   -0.1020    0.7290 hc        1 MOL      0.146450
    153 H71        10.0450   -1.6230   -0.7370 hc        1 MOL     -0.031372
    154 H72         9.9540   -2.9650    0.3810 hc        1 MOL     -0.031372
    155 H73        11.2230   -1.3920    2.0940 hc        1 MOL      0.066273
    156 H74        11.4570   -0.4150    0.5720 hc        1 MOL      0.066273
    157 H75        13.4640   -1.3400    0.6510 hx        1 MOL      0.058802
    158 H76        12.5780   -2.0880   -0.6310 hx        1 MOL      0.058802
    159 H77        12.2610   -4.0330    0.7140 hn        1 MOL      0.244378
    160 H78        13.8530   -3.6820    0.8260 hn        1 MOL      0.244378
    161 H79        12.9520   -3.2620    2.0500 hn        1 MOL      0.244378
    162 N14         5.0850   -2.1410    1.4400 n         1 MOL     -0.484851
    163 C49         3.8980   -1.5680    2.1170 c3        1 MOL      0.341617
    164 C50         2.5890   -1.8140    1.3160 c         1 MOL      0.194656
    165 O22         1.9480   -0.7750    1.1050 o         1 MOL     -0.500852
    166 C51         3.8650   -2.0930    3.5650 c3        1 MOL      0.011562
    167 C52         4.7060   -1.5300    4.6900 c3        1 MOL     -0.220300
    168 C53         4.5000   -2.3390    5.9760 c         1 MOL      0.644771
    169 O23         3.7410   -1.8180    6.8630 o         1 MOL     -0.618328
    170 O24         4.9150   -3.5060    6.1010 o         1 MOL     -0.618328
    171 H80         4.9940   -2.9910    0.9160 hn        1 MOL      0.278770
    172 H81         4.0770   -0.5090    2.2840 h1        1 MOL      0.064475
    173 H82         4.1040   -3.1570    3.4870 hc        1 MOL      0.011610
    174 H83         2.8620   -1.9760    3.9630 hc        1 MOL      0.011610
    175 H84         4.4300   -0.5040    4.9090 hc        1 MOL      0.031811
    176 H85         5.7440   -1.5430    4.3700 hc        1 MOL      0.031811
    177 N15         2.1180   -2.9710    0.8090 n         1 MOL     -0.243318
    178 C54         2.5110   -4.3730    1.0690 c3        1 MOL     -0.127602
    179 H86         2.4510   -4.5740    2.1390 h1        1 MOL      0.074671
    180 H87         1.8380   -5.0440    0.5360 h1        1 MOL      0.074671
    181 H88         3.5320   -4.5340    0.7260 h1        1 MOL      0.074671
    182 H89         1.2720   -2.8270    0.2750 hn        1 MOL      0.321768
    183 Ca1        -0.2890    0.7220    1.3040 Ca        1 MOL      1.829302
    184 O25         1.9210    2.1040    2.4430 oh        1 MOL     -0.987945
    185 H90         2.5810    1.8240    3.0780 ho        1 MOL      0.462782
    186 H91         1.7970    3.0400    2.6200 ho        1 MOL      0.462782
    187 O26         0.3170   -0.2090    3.7880 oh        1 MOL     -0.987945
    188 H92         0.3980   -1.0930    4.1380 ho        1 MOL      0.462782
    189 H93         0.4900    0.3670    4.5330 ho        1 MOL      0.462782
@<TRIPOS>BOND
     1    1    2 1   
     2    1    4 1   
     3    1    5 1   
     4    1    6 1   
     5    2    3 2   
     6    2    7 1   
     7    7    8 1   
     8    7   15 1   
     9    8    9 1   
    10    8   11 1   
    11    8   16 1   
    12    9   10 2   
    13    9   19 1   
    14   11   12 1   
    15   11   17 1   
    16   11   18 1   
    17   12   13 1   
    18   12   14 1   
    19   19   20 1   
    20   19   28 1   
    21   20   21 1   
    22   20   23 1   
    23   20   29 1   
    24   21   22 2   
    25   21   41 1   
    26   23   24 1   
    27   23   30 1   
    28   23   31 1   
    29   24   25 1   
    30   24   32 1   
    31   24   33 1   
    32   25   26 1   
    33   25   34 1   
    34   25   35 1   
    35   26   27 1   
    36   26   36 1   
    37   26   37 1   
    38   27   38 1   
    39   27   39 1   
    40   27   40 1   
    41   41   42 1   
    42   41   49 1   
    43   42   43 1   
    44   42   45 1   
    45   42   50 1   
    46   43   44 2   
    47   43   53 1   
    48   45   46 1   
    49   45   51 1   
    50   45   52 1   
    51   46   47 1   
    52   46   48 1   
    53   53   54 1   
    54   53   57 1   
    55   54   55 1   
    56   54   58 1   
    57   54   59 1   
    58   55   56 2   
    59   55   60 1   
    60   60   61 1   
    61   60   68 1   
    62   61   62 1   
    63   61   64 1   
    64   61   69 1   
    65   62   63 2   
    66   62   72 1   
    67   64   65 1   
    68   64   70 1   
    69   64   71 1   
    70   65   66 1   
    71   65   67 1   
    72   72   73 1   
    73   72   76 1   
    74   73   74 1   
    75   73   77 1   
    76   73   78 1   
    77   74   75 2   
    78   74   79 1   
    79   79   80 1   
    80   79   86 1   
    81   80   81 1   
    82   80   83 1   
    83   80   87 1   
    84   81   82 2   
    85   81   93 1   
    86   83   84 1   
    87   83   85 1   
    88   83   88 1   
    89   84   90 1   
    90   84   91 1   
    91   84   92 1   
    92   85   89 1   
    93   93   94 1   
    94   93  101 1   
    95   94   95 1   
    96   94   97 1   
    97   94  102 1   
    98   95   96 2   
    99   95  112 1   
   100   97   98 1   
   101   97   99 1   
   102   97  103 1   
   103   98  100 1   
   104   98  104 1   
   105   98  105 1   
   106   99  106 1   
   107   99  107 1   
   108   99  108 1   
   109  100  109 1   
   110  100  110 1   
   111  100  111 1   
   112  112  113 1   
   113  112  119 1   
   114  113  114 1   
   115  113  116 1   
   116  113  120 1   
   117  114  115 2   
   118  114  126 1   
   119  116  117 1   
   120  116  118 1   
   121  116  121 1   
   122  117  123 1   
   123  117  124 1   
   124  117  125 1   
   125  118  122 1   
   126  126  127 1   
   127  126  133 1   
   128  127  128 1   
   129  127  130 1   
   130  127  134 1   
   131  128  129 2   
   132  128  140 1   
   133  130  131 1   
   134  130  132 1   
   135  130  135 1   
   136  131  137 1   
   137  131  138 1   
   138  131  139 1   
   139  132  136 1   
   140  140  141 1   
   141  140  149 1   
   142  141  142 1   
   143  141  144 1   
   144  141  150 1   
   145  142  143 2   
   146  142  162 1   
   147  144  145 1   
   148  144  151 1   
   149  144  152 1   
   150  145  146 1   
   151  145  153 1   
   152  145  154 1   
   153  146  147 1   
   154  146  155 1   
   155  146  156 1   
   156  147  148 1   
   157  147  157 1   
   158  147  158 1   
   159  148  159 1   
   160  148  160 1   
   161  148  161 1   
   162  162  163 1   
   163  162  171 1   
   164  163  164 1   
   165  163  166 1   
   166  163  172 1   
   167  164  165 2   
   168  164  177 1   
   169  166  167 1   
   170  166  173 1   
   171  166  174 1   
   172  167  168 1   
   173  167  175 1   
   174  167  176 1   
   175  168  169 1   
   176  168  170 1   
   177  177  178 1   
   178  177  182 1   
   179  178  179 1   
   180  178  180 1   
   181  178  181 1   
   182  184  185 1   
   183  184  186 1   
   184  187  188 1   
   185  187  189 1   
@<TRIPOS>SUBSTRUCTURE
     1 MOL         1 TEMP              0 ****  ****    0 ROOT
