@<TRIPOS>MOLECULE
MOL
  185   180     1     0     0
SMALL
resp


@<TRIPOS>ATOM
      1 C1          5.8480   -0.5770   -3.8030 c3        1 MOL     -0.499827
      2 C2          6.5010   -0.8280   -2.4590 c         1 MOL      0.551843
      3 O1          5.9290   -0.6120   -1.3870 o         1 MOL     -0.389420
      4 H1          5.7120   -1.5250   -4.3230 hc        1 MOL      0.140513
      5 H2          4.8770   -0.1040   -3.6540 hc        1 MOL      0.140513
      6 H3          6.4830    0.0780   -4.4000 hc        1 MOL      0.140513
      7 N1          7.8160   -1.1700   -2.5290 n         1 MOL     -0.515281
      8 C3          8.6680   -1.4580   -1.3820 c3        1 MOL      0.136870
      9 C4          8.6470   -0.5320   -0.1680 c         1 MOL      0.533618
     10 O2          8.6850   -0.9740    1.0030 o         1 MOL     -0.493436
     11 C5          8.5570   -2.9120   -0.9740 c3        1 MOL     -0.309110
     12 C6          8.6860   -3.9100   -2.1300 c         1 MOL      0.803874
     13 O3          8.0010   -4.9380   -2.2680 o         1 MOL     -0.690121
     14 O4          9.6030   -3.6690   -2.9220 o         1 MOL     -0.690121
     15 H4          8.2360   -1.1490   -3.4460 hn        1 MOL      0.317477
     16 H5          9.7040   -1.2640   -1.6810 h1        1 MOL      0.036954
     17 H6          7.6460   -3.0590   -0.3940 hc        1 MOL      0.079052
     18 H7          9.3920   -3.1400   -0.3170 hc        1 MOL      0.079052
     19 N2          8.3890    0.8180   -0.3800 n         1 MOL     -0.507302
     20 C7          8.2670    1.8040    0.6850 c3        1 MOL     -0.008472
     21 C8          6.8530    2.0670    1.2140 c         1 MOL      0.614049
     22 O5          6.7110    2.8890    2.1050 o         1 MOL     -0.584043
     23 C9          9.0790    3.1250    0.2910 c3        1 MOL     -0.029478
     24 C10         8.4940    4.0720   -0.8480 c3        1 MOL     -0.041598
     25 C11         9.4580    5.1680   -1.0910 c3        1 MOL     -0.109796
     26 C12        10.5360    4.9100   -2.2190 c3        1 MOL     -0.201552
     27 N3         10.0560    5.1950   -3.5950 n4        1 MOL     -0.127242
     28 H8          8.3740    1.0560   -1.3530 hn        1 MOL      0.240908
     29 H9          8.7700    1.4110    1.5630 h1        1 MOL      0.120093
     30 H10        10.0550    2.7560   -0.0230 hc        1 MOL      0.044258
     31 H11         9.2300    3.6580    1.2410 hc        1 MOL      0.044258
     32 H12         7.5660    4.5270   -0.5160 hc        1 MOL      0.042447
     33 H13         8.4440    3.5120   -1.7780 hc        1 MOL      0.042447
     34 H14         9.9380    5.5590   -0.1940 hc        1 MOL      0.085665
     35 H15         8.7760    5.9690   -1.3800 hc        1 MOL      0.085665
     36 H16        10.9140    3.8990   -2.0640 hx        1 MOL      0.143728
     37 H17        11.3670    5.5820   -2.0490 hx        1 MOL      0.143728
     38 H18         9.2500    4.6550   -3.8840 hn        1 MOL      0.247000
     39 H19         9.7550    6.1590   -3.5470 hn        1 MOL      0.247000
     40 H20        10.7830    5.2200   -4.3010 hn        1 MOL      0.247000
     41 N4          5.8190    1.3860    0.7170 n         1 MOL     -0.353908
     42 C13         4.4470    1.6250    1.1630 c3        1 MOL     -0.325000
     43 C14         4.1550    1.3240    2.6640 c         1 MOL      0.730926
     44 O6          4.5630    0.3400    3.2410 o         1 MOL     -0.503221
     45 C15         3.6070    0.6610    0.3480 c3        1 MOL      0.188784
     46 C16         2.1610    1.1400    0.4130 c         1 MOL      0.470440
     47 O7          1.6780    1.8080   -0.5170 o         1 MOL     -0.651173
     48 O8          1.3720    0.5900    1.2420 o         1 MOL     -0.651173
     49 H21         5.9380    0.6610    0.0280 hn        1 MOL      0.204826
     50 H22         4.1140    2.6430    0.9800 h1        1 MOL      0.107743
     51 H23         3.6690   -0.4080    0.5800 hc        1 MOL      0.017760
     52 H24         3.8710    0.7100   -0.7150 hc        1 MOL      0.017760
     53 N5          3.4870    2.2600    3.2840 n         1 MOL     -0.321272
     54 C17         3.3320    2.2710    4.7310 c3        1 MOL     -0.295580
     55 C18         2.5000    1.1420    5.3300 c         1 MOL      0.581671
     56 O9          2.8660    0.4100    6.2880 o         1 MOL     -0.539170
     57 H25         3.1460    3.0630    2.7710 hn        1 MOL      0.261594
     58 H26         2.8610    3.2450    4.8830 h1        1 MOL      0.135925
     59 H27         4.3560    2.1630    5.0720 h1        1 MOL      0.135925
     60 N6          1.3750    0.9700    4.7040 n         1 MOL     -0.487058
     61 C19         0.4230   -0.1320    4.8950 c3        1 MOL      0.178174
     62 C20         0.7590   -1.4250    4.1720 c         1 MOL      0.300467
     63 O10        -0.0130   -2.4450    4.0760 o         1 MOL     -0.526764
     64 C21        -1.0890    0.2260    4.8680 c3        1 MOL     -0.342382
     65 C22        -1.7410    0.4290    3.4800 c         1 MOL      0.796096
     66 N7         -2.5770   -0.4660    2.9920 n         1 MOL     -0.836120
     67 O11        -1.4710    1.4280    2.8330 o         1 MOL     -0.715636
     68 H28         1.1900    1.5450    3.8900 hn        1 MOL      0.307382
     69 H29         0.5740   -0.4230    5.9400 h1        1 MOL      0.105175
     70 H30        -1.2120    1.1420    5.4520 hc        1 MOL      0.105314
     71 H31        -1.5930   -0.5840    5.3930 hc        1 MOL      0.105314
     72 H32        -2.8810   -1.2330    3.5830 hn        1 MOL      0.383203
     73 H33        -2.9830   -0.2720    2.0940 hn        1 MOL      0.383203
     74 N8          1.9140   -1.4690    3.4770 n         1 MOL     -0.039857
     75 C23         2.3470   -2.6270    2.7470 c3        1 MOL     -0.194695
     76 C24         1.3970   -3.0890    1.5720 c         1 MOL      0.608380
     77 O12         1.3220   -4.3120    1.4510 o         1 MOL     -0.563943
     78 H34         2.6230   -0.7640    3.6280 hn        1 MOL      0.138812
     79 H35         2.3860   -3.4460    3.4610 h1        1 MOL      0.107480
     80 H36         3.3750   -2.4580    2.4330 h1        1 MOL      0.107480
     81 N9          0.6630   -2.2170    0.8480 n         1 MOL     -0.263197
     82 C25        -0.0560   -2.6500   -0.3350 c3        1 MOL      0.048305
     83 C26        -1.3810   -1.9490   -0.3370 c         1 MOL      0.215984
     84 O13        -1.4170   -0.7440   -0.1040 o         1 MOL     -0.355626
     85 C27         0.7360   -2.1690   -1.5620 c3        1 MOL     -0.142957
     86 C28         1.8590   -3.2150   -1.8490 ca        1 MOL      0.022313
     87 C29         1.5830   -4.3550   -2.5910 ca        1 MOL     -0.200135
     88 C30         3.2050   -2.9960   -1.3770 ca        1 MOL     -0.200135
     89 C31         2.6060   -5.2840   -2.8430 ca        1 MOL     -0.105979
     90 C32         4.2190   -3.9240   -1.6790 ca        1 MOL     -0.105979
     91 C33         3.9070   -5.0010   -2.4990 ca        1 MOL      0.235141
     92 O14         4.9420   -5.8540   -2.8890 oh        1 MOL     -0.518607
     93 H37         0.8730   -1.2360    0.8790 hn        1 MOL      0.078980
     94 H38        -0.0950   -3.7440   -0.4020 h1        1 MOL      0.095097
     95 H39         1.2520   -1.2150   -1.4680 hc        1 MOL      0.070473
     96 H40         0.0480   -2.1330   -2.4120 hc        1 MOL      0.070473
     97 H41         0.6020   -4.5250   -2.9920 ha        1 MOL      0.109668
     98 H42         3.4520   -2.0410   -0.9360 ha        1 MOL      0.109668
     99 H43         2.4190   -6.1150   -3.5100 ha        1 MOL      0.104682
    100 H44         5.2500   -3.7510   -1.3990 ha        1 MOL      0.104682
    101 H45         5.7460   -5.6090   -2.4140 ho        1 MOL      0.400044
    102 N10        -2.4280   -2.6530   -0.7570 n         1 MOL     -0.196741
    103 C34        -3.6690   -2.1730   -1.2760 c3        1 MOL      0.090093
    104 C35        -4.8040   -2.1650   -0.2190 c         1 MOL      0.346466
    105 O15        -5.3890   -1.0940   -0.0770 o         1 MOL     -0.436893
    106 C36        -4.2490   -2.9820   -2.4840 c3        1 MOL     -0.216317
    107 C37        -3.2720   -2.9530   -3.6890 c3        1 MOL      0.189802
    108 C38        -5.5830   -2.4140   -2.9640 c3        1 MOL     -0.306053
    109 C39        -3.1940   -1.6890   -4.4270 c3        1 MOL     -0.357868
    110 H46        -2.2890   -3.6400   -0.9310 hn        1 MOL      0.229364
    111 H47        -3.5490   -1.1330   -1.5600 h1        1 MOL      0.092182
    112 H48        -4.3510   -4.0100   -2.1440 hc        1 MOL      0.037931
    113 H49        -3.5800   -3.6670   -4.4410 hc        1 MOL      0.000614
    114 H50        -2.2650   -3.2750   -3.4410 hc        1 MOL      0.000614
    115 H51        -5.9690   -2.6720   -3.9500 hc        1 MOL      0.111266
    116 H52        -6.4010   -2.5410   -2.2480 hc        1 MOL      0.111266
    117 H53        -5.4280   -1.3740   -3.2330 hc        1 MOL      0.111266
    118 H54        -2.5580   -1.9210   -5.2800 hc        1 MOL      0.096300
    119 H55        -4.1760   -1.3880   -4.7890 hc        1 MOL      0.096300
    120 H56        -2.7960   -0.8980   -3.7840 hc        1 MOL      0.096300
    121 N11        -5.0260   -3.2020    0.5930 n         1 MOL     -0.138329
    122 C40        -5.9340   -3.1990    1.7000 c3        1 MOL     -0.141259
    123 C41        -7.3360   -2.6010    1.3890 c         1 MOL      0.373602
    124 O16        -7.9880   -2.0360    2.2770 o         1 MOL     -0.463495
    125 C42        -5.9540   -4.6490    2.2160 c3        1 MOL      0.201475
    126 O17        -4.7380   -5.0080    2.8920 oh        1 MOL     -0.597090
    127 H57        -4.3690   -3.9650    0.6110 hn        1 MOL      0.188225
    128 H58        -5.4860   -2.6220    2.5070 h1        1 MOL      0.171365
    129 H59        -6.2230   -5.4220    1.5000 h1        1 MOL      0.024740
    130 H60        -6.7240   -4.7690    2.9760 h1        1 MOL      0.024740
    131 H61        -4.7730   -5.9620    2.9940 ho        1 MOL      0.414627
    132 N12        -7.8000   -2.7200    0.1230 n         1 MOL     -0.390957
    133 C43        -9.0470   -2.1810   -0.4770 c3        1 MOL      0.456035
    134 C44        -9.3070   -0.6840   -0.3150 c         1 MOL      0.324422
    135 O18       -10.4460   -0.2230   -0.4040 o         1 MOL     -0.515230
    136 C45       -10.1850   -3.1440   -0.1910 c3        1 MOL     -0.341507
    137 H62        -7.2960   -3.3680   -0.4720 hn        1 MOL      0.230624
    138 H63        -8.8080   -2.3640   -1.5260 h1        1 MOL     -0.024647
    139 H64       -10.0490   -3.9720   -0.8960 hc        1 MOL      0.085400
    140 H65       -10.1240   -3.5320    0.8230 hc        1 MOL      0.085400
    141 H66       -11.1490   -2.6480   -0.3020 hc        1 MOL      0.085400
    142 N13        -8.2600    0.0540   -0.0860 n         1 MOL     -0.353655
    143 C46        -8.2610    1.4830    0.2870 c3        1 MOL      0.687574
    144 C47        -7.4050    2.2840   -0.7600 c         1 MOL      0.151145
    145 O19        -6.5230    1.7070   -1.3610 o         1 MOL     -0.442416
    146 C48        -7.8060    1.6100    1.6860 c3        1 MOL     -0.326698
    147 H67        -7.3180   -0.3200   -0.0240 hn        1 MOL      0.065184
    148 H68        -9.3090    1.7590    0.2790 h1        1 MOL     -0.096412
    149 H69        -7.8500    2.6750    1.8930 hc        1 MOL      0.079361
    150 H70        -8.4310    1.0330    2.3620 hc        1 MOL      0.079361
    151 H71        -6.7800    1.2250    1.6860 hc        1 MOL      0.079361
    152 N14        -7.5330    3.6040   -0.8010 n         1 MOL     -0.315352
    153 C49        -6.7970    4.5980   -1.6180 c3        1 MOL     -0.049178
    154 C50        -7.0750    4.4380   -3.1600 c         1 MOL      0.383316
    155 O20        -6.2950    4.9590   -3.9510 o         1 MOL     -0.477214
    156 C51        -5.2330    4.5290   -1.3940 c3        1 MOL      0.196005
    157 C52        -4.7280    4.7940    0.0250 c3        1 MOL     -0.104398
    158 C53        -3.2070    4.7410    0.1400 c         1 MOL      0.627794
    159 O21        -2.6420    3.6700    0.5240 o         1 MOL     -0.676806
    160 O22        -2.5090    5.7240   -0.2700 o         1 MOL     -0.676806
    161 H72        -8.2300    4.0250   -0.1990 hn        1 MOL      0.243505
    162 H73        -7.1310    5.6070   -1.3580 h1        1 MOL      0.094690
    163 H74        -4.7330    5.1870   -2.1060 hc        1 MOL     -0.008913
    164 H75        -4.7780    3.5580   -1.5750 hc        1 MOL     -0.008913
    165 H76        -5.2750    4.1300    0.6940 hc        1 MOL     -0.009488
    166 H77        -5.0660    5.7810    0.3510 hc        1 MOL     -0.009488
    167 N15        -8.2020    3.8450   -3.6180 n         1 MOL     -0.235626
    168 C54        -8.3370    3.4100   -5.0610 c3        1 MOL     -0.149383
    169 H78        -8.6290    4.2640   -5.6720 h1        1 MOL      0.093275
    170 H79        -7.3820    3.0200   -5.4140 h1        1 MOL      0.093275
    171 H80        -9.0980    2.6330   -5.1370 h1        1 MOL      0.093275
    172 H81        -8.9160    3.5580   -2.9500 hn        1 MOL      0.203811
    173 Ca1        -0.9030    1.8350    0.2870 Ca        1 MOL      1.700210
    174 O23        -1.7760    1.3800   -2.1720 oh        1 MOL     -0.835329
    175 H82        -1.1700    1.4690   -2.9030 ho        1 MOL      0.405498
    176 H83        -2.6390    1.4010   -2.5730 ho        1 MOL      0.405498
    177 O24         0.5030    3.8620    1.5890 oh        1 MOL     -0.835329
    178 H84         0.2670    4.7500    1.2920 ho        1 MOL      0.405498
    179 H85         0.4890    3.9160    2.5460 ho        1 MOL      0.405498
    180 O25        -3.5650    1.1530    0.3970 oh        1 MOL     -0.835329
    181 H86        -4.2400    0.5160    0.1570 ho        1 MOL      0.405498
    182 H87        -4.0080    1.9980    0.3330 ho        1 MOL      0.405498
    183 O26        -0.5740    4.0400   -1.2600 oh        1 MOL     -0.835329
    184 H88        -1.1440    4.6450   -0.7910 ho        1 MOL      0.405498
    185 H89        -0.0540    4.6060   -1.8470 ho        1 MOL      0.405498
@<TRIPOS>BOND
     1    1    2 1   
     2    1    4 1   
     3    1    5 1   
     4    1    6 1   
     5    2    3 2   
     6    2    7 1   
     7    7    8 1   
     8    7   15 1   
     9    8    9 1   
    10    8   11 1   
    11    8   16 1   
    12    9   10 2   
    13    9   19 1   
    14   11   12 1   
    15   11   17 1   
    16   11   18 1   
    17   12   13 1   
    18   12   14 1   
    19   19   20 1   
    20   19   28 1   
    21   20   21 1   
    22   20   23 1   
    23   20   29 1   
    24   21   22 2   
    25   21   41 1   
    26   23   24 1   
    27   23   30 1   
    28   23   31 1   
    29   24   25 1   
    30   24   32 1   
    31   24   33 1   
    32   25   26 1   
    33   25   34 1   
    34   25   35 1   
    35   26   27 1   
    36   26   36 1   
    37   26   37 1   
    38   27   38 1   
    39   27   39 1   
    40   27   40 1   
    41   41   42 1   
    42   41   49 1   
    43   42   43 1   
    44   42   45 1   
    45   42   50 1   
    46   43   44 2   
    47   43   53 1   
    48   45   46 1   
    49   45   51 1   
    50   45   52 1   
    51   46   47 1   
    52   46   48 1   
    53   53   54 1   
    54   53   57 1   
    55   54   55 1   
    56   54   58 1   
    57   54   59 1   
    58   55   56 2   
    59   55   60 1   
    60   60   61 1   
    61   60   68 1   
    62   61   62 1   
    63   61   64 1   
    64   61   69 1   
    65   62   63 2   
    66   62   74 1   
    67   64   65 1   
    68   64   70 1   
    69   64   71 1   
    70   65   66 1   
    71   65   67 2   
    72   66   72 1   
    73   66   73 1   
    74   74   75 1   
    75   74   78 1   
    76   75   76 1   
    77   75   79 1   
    78   75   80 1   
    79   76   77 2   
    80   76   81 1   
    81   81   82 1   
    82   81   93 1   
    83   82   83 1   
    84   82   85 1   
    85   82   94 1   
    86   83   84 2   
    87   83  102 1   
    88   85   86 1   
    89   85   95 1   
    90   85   96 1   
    91   86   87 ar  
    92   86   88 ar  
    93   87   89 ar  
    94   87   97 1   
    95   88   90 ar  
    96   88   98 1   
    97   89   91 ar  
    98   89   99 1   
    99   90   91 ar  
   100   90  100 1   
   101   91   92 1   
   102   92  101 1   
   103  102  103 1   
   104  102  110 1   
   105  103  104 1   
   106  103  106 1   
   107  103  111 1   
   108  104  105 2   
   109  104  121 1   
   110  106  107 1   
   111  106  108 1   
   112  106  112 1   
   113  107  109 1   
   114  107  113 1   
   115  107  114 1   
   116  108  115 1   
   117  108  116 1   
   118  108  117 1   
   119  109  118 1   
   120  109  119 1   
   121  109  120 1   
   122  121  122 1   
   123  121  127 1   
   124  122  123 1   
   125  122  125 1   
   126  122  128 1   
   127  123  124 2   
   128  123  132 1   
   129  125  126 1   
   130  125  129 1   
   131  125  130 1   
   132  126  131 1   
   133  132  133 1   
   134  132  137 1   
   135  133  134 1   
   136  133  136 1   
   137  133  138 1   
   138  134  135 2   
   139  134  142 1   
   140  136  139 1   
   141  136  140 1   
   142  136  141 1   
   143  142  143 1   
   144  142  147 1   
   145  143  144 1   
   146  143  146 1   
   147  143  148 1   
   148  144  145 2   
   149  144  152 1   
   150  146  149 1   
   151  146  150 1   
   152  146  151 1   
   153  152  153 1   
   154  152  161 1   
   155  153  154 1   
   156  153  156 1   
   157  153  162 1   
   158  154  155 2   
   159  154  167 1   
   160  156  157 1   
   161  156  163 1   
   162  156  164 1   
   163  157  158 1   
   164  157  165 1   
   165  157  166 1   
   166  158  159 1   
   167  158  160 1   
   168  167  168 1   
   169  167  172 1   
   170  168  169 1   
   171  168  170 1   
   172  168  171 1   
   173  174  175 1   
   174  174  176 1   
   175  177  178 1   
   176  177  179 1   
   177  180  181 1   
   178  180  182 1   
   179  183  184 1   
   180  183  185 1   
@<TRIPOS>SUBSTRUCTURE
     1 MOL         1 TEMP              0 ****  ****    0 ROOT
