@<TRIPOS>MOLECULE
MOL
  189   185     1     0     0
SMALL
resp


@<TRIPOS>ATOM
      1 C1          9.0710    1.4990    1.5640 c3        1 MOL     -0.542071
      2 C2          7.9810    1.0870    0.6420 c         1 MOL      0.776469
      3 O1          6.8200    1.1410    1.0520 o         1 MOL     -0.675232
      4 H1          9.2950    0.6820    2.2490 hc        1 MOL      0.134556
      5 H2          9.9630    1.7430    0.9870 hc        1 MOL      0.134556
      6 H3          8.7550    2.3730    2.1330 hc        1 MOL      0.134556
      7 N1          8.3450    0.6300   -0.5640 n         1 MOL     -0.496772
      8 C3          7.4930    0.1300   -1.6280 c3        1 MOL      0.006843
      9 C4          7.0220   -1.3170   -1.4440 c         1 MOL      0.404857
     10 O2          7.1720   -2.0930   -2.4070 o         1 MOL     -0.462582
     11 C5          8.1460    0.3930   -2.9230 c3        1 MOL     -0.273513
     12 C6          9.4500   -0.3400   -3.2040 c         1 MOL      0.758892
     13 O3          9.9400   -0.3430   -4.3640 o         1 MOL     -0.666095
     14 O4         10.1150   -0.8260   -2.2640 o         1 MOL     -0.666095
     15 H4          9.3160    0.4240   -0.7500 hn        1 MOL      0.251129
     16 H5          6.6230    0.7990   -1.6200 h1        1 MOL      0.108303
     17 H6          8.3260    1.4550   -3.0930 hc        1 MOL      0.088361
     18 H7          7.4290    0.1240   -3.7030 hc        1 MOL      0.088361
     19 N2          6.5530   -1.6480   -0.2370 n         1 MOL     -0.087094
     20 C7          6.4010   -2.9840    0.2880 c3        1 MOL     -0.018234
     21 C8          4.9310   -3.5060    0.3080 c         1 MOL      0.502762
     22 O5          4.6360   -4.6460    0.0010 o         1 MOL     -0.547347
     23 C9          7.0330   -3.1880    1.6280 c3        1 MOL     -0.059883
     24 C10         8.5940   -3.2290    1.5010 c3        1 MOL      0.031491
     25 C11         9.2310   -3.3280    2.9570 c3        1 MOL     -0.205109
     26 C12        10.6610   -3.8640    2.8300 c3        1 MOL      0.190661
     27 N3         11.2460   -4.3200    4.1110 n4        1 MOL     -0.303245
     28 H8          6.4240   -0.8860    0.4180 hn        1 MOL      0.141516
     29 H9          6.8900   -3.5630   -0.4980 h1        1 MOL      0.075188
     30 H10         6.7350   -4.1730    1.9860 hc        1 MOL      0.037686
     31 H11         6.7290   -2.4780    2.3990 hc        1 MOL      0.037686
     32 H12         8.9600   -2.3010    1.0690 hc        1 MOL      0.036873
     33 H13         8.8580   -4.0140    0.7930 hc        1 MOL      0.036873
     34 H14         8.6280   -3.9800    3.5930 hc        1 MOL      0.059758
     35 H15         9.2640   -2.3500    3.4310 hc        1 MOL      0.059758
     36 H16        11.2980   -3.0630    2.4490 hx        1 MOL      0.046718
     37 H17        10.8060   -4.5680    2.0180 hx        1 MOL      0.046718
     38 H18        12.2270   -4.4810    3.9520 hn        1 MOL      0.263585
     39 H19        11.3360   -3.5940    4.8140 hn        1 MOL      0.263585
     40 H20        10.7850   -5.1240    4.5200 hn        1 MOL      0.263585
     41 N4          3.9140   -2.7400    0.6800 n         1 MOL     -0.429111
     42 C13         3.8860   -1.4370    1.2790 c3        1 MOL      0.111603
     43 C14         3.7690   -0.3330    0.2060 c         1 MOL      0.100050
     44 O6          3.5640   -0.6120   -0.9870 o         1 MOL     -0.439043
     45 C15         2.7590   -1.3230    2.2690 c3        1 MOL     -0.190243
     46 C16         1.4820   -1.8290    1.6530 c         1 MOL      0.720032
     47 O7          0.6950   -1.0660    1.0170 o         1 MOL     -0.663377
     48 O8          1.3550   -3.0460    1.7160 o         1 MOL     -0.663377
     49 H21         3.0000   -3.1700    0.5760 hn        1 MOL      0.344413
     50 H22         4.8220   -1.3450    1.8240 h1        1 MOL      0.081145
     51 H23         2.6470   -0.2600    2.4810 hc        1 MOL      0.021797
     52 H24         3.0030   -1.8850    3.1630 hc        1 MOL      0.021797
     53 N5          3.9750    0.9190    0.5880 n         1 MOL     -0.095733
     54 C17         3.9960    2.1070   -0.2680 c3        1 MOL     -0.087045
     55 C18         2.7030    2.4120   -1.0720 c         1 MOL      0.245377
     56 O9          1.6790    1.8410   -0.7860 o         1 MOL     -0.300836
     57 H25         4.1720    0.9730    1.5750 hn        1 MOL      0.237877
     58 H26         4.8570    2.1100   -0.9430 h1        1 MOL      0.086564
     59 H27         4.1300    2.9770    0.3640 h1        1 MOL      0.086564
     60 N6          2.7540    3.3900   -1.9740 n         1 MOL     -0.263252
     61 C19         1.6330    4.0960   -2.5990 c3        1 MOL      0.254997
     62 C20         1.8720    5.5800   -2.9860 c         1 MOL      0.304306
     63 O10         3.0240    5.8880   -3.3010 o         1 MOL     -0.506039
     64 C21         1.3400    3.3250   -3.8900 c3        1 MOL     -0.124026
     65 C22         0.3080    2.1430   -3.9730 c         1 MOL      0.626665
     66 O11        -0.4730    1.9310   -3.0390 o         1 MOL     -0.672272
     67 O12         0.2360    1.3580   -5.0030 o         1 MOL     -0.672272
     68 H28         3.6350    3.7850   -2.2740 hn        1 MOL      0.242037
     69 H29         0.7230    4.0120   -2.0060 h1        1 MOL     -0.075021
     70 H30         2.2470    2.8400   -4.2340 hc        1 MOL      0.031100
     71 H31         0.9160    3.9230   -4.6970 hc        1 MOL      0.031100
     72 N7          0.8820    6.4480   -3.2160 n         1 MOL     -0.311984
     73 C23        -0.4800    6.1590   -2.9800 c3        1 MOL     -0.132012
     74 C24        -0.9140    6.0370   -1.5230 c         1 MOL      0.595468
     75 O13        -0.1580    6.3820   -0.5880 o         1 MOL     -0.518783
     76 H32         1.1730    7.3180   -3.6370 hn        1 MOL      0.302033
     77 H33        -0.7960    5.3540   -3.6400 h1        1 MOL      0.106113
     78 H34        -1.0580    7.0060   -3.3410 h1        1 MOL      0.106113
     79 N8         -2.1590    5.6570   -1.2310 n         1 MOL     -0.573211
     80 C25        -2.5880    5.1830    0.1210 c3        1 MOL      0.052497
     81 C26        -1.6860    3.9640    0.5860 c         1 MOL      0.894190
     82 O14        -1.4680    2.9750   -0.1470 o         1 MOL     -0.685494
     83 C27        -4.0730    4.8950    0.2120 c3        1 MOL      0.357612
     84 C28        -4.5010    4.3800    1.6170 c3        1 MOL     -0.222303
     85 O15        -4.5200    3.9030   -0.7130 oh        1 MOL     -0.592330
     86 H35        -2.7920    5.4030   -1.9760 hn        1 MOL      0.292647
     87 H36        -2.3640    5.9640    0.8410 h1        1 MOL      0.028426
     88 H37        -4.6420    5.8130    0.0550 h1        1 MOL     -0.002446
     89 H38        -5.4040    4.1550   -0.9930 ho        1 MOL      0.393714
     90 H39        -3.9380    4.9260    2.3700 hc        1 MOL      0.036299
     91 H40        -5.5750    4.4680    1.7530 hc        1 MOL      0.036299
     92 H41        -4.3590    3.3070    1.7890 hc        1 MOL      0.036299
     93 N9         -1.3850    3.9670    1.8650 n         1 MOL     -0.717074
     94 C29        -0.9610    2.8190    2.7130 c3        1 MOL      0.030318
     95 C30        -1.7160    1.5140    2.5500 c         1 MOL      0.607937
     96 O16        -1.6640    0.7510    1.5730 o         1 MOL     -0.509052
     97 C31         0.5820    2.6490    2.5470 c3        1 MOL      0.309173
     98 C32         1.4310    3.9120    2.3210 c3        1 MOL     -0.262185
     99 C33         1.0970    1.8080    3.8100 c3        1 MOL     -0.296972
    100 C34         1.3070    5.0460    3.3400 c3        1 MOL     -0.206724
    101 H42        -1.7210    4.7410    2.4150 hn        1 MOL      0.355000
    102 H43        -1.0640    3.1070    3.7520 h1        1 MOL      0.065471
    103 H44         0.7770    2.0010    1.6910 hc        1 MOL     -0.219698
    104 H45         1.1890    4.4580    1.4010 hc        1 MOL      0.136383
    105 H46         2.4940    3.6550    2.3090 hc        1 MOL      0.136383
    106 H47         0.9510    2.3590    4.7360 hc        1 MOL      0.076880
    107 H48         0.6210    0.8320    3.8610 hc        1 MOL      0.076880
    108 H49         2.1710    1.6570    3.6660 hc        1 MOL      0.076880
    109 H50         1.9470    4.7390    4.1720 hc        1 MOL      0.057008
    110 H51         1.6230    5.9950    2.9190 hc        1 MOL      0.057008
    111 H52         0.3040    5.2230    3.7190 hc        1 MOL      0.057008
    112 N10        -2.3800    1.0810    3.6110 n         1 MOL     -0.558450
    113 C35        -2.8550   -0.3050    3.8330 c3        1 MOL      0.018965
    114 C36        -4.1090   -0.6760    3.1380 c         1 MOL      0.435799
    115 O17        -4.2710   -1.8760    2.8960 o         1 MOL     -0.556016
    116 C37        -2.8810   -0.8230    5.2920 c3        1 MOL      0.555290
    117 C38        -3.8810   -0.2450    6.2750 c3        1 MOL     -0.433174
    118 O18        -1.5570   -0.6640    5.8590 oh        1 MOL     -0.681523
    119 H53        -2.4500    1.7160    4.3960 hn        1 MOL      0.282744
    120 H54        -2.1030   -0.9700    3.3950 h1        1 MOL      0.054832
    121 H55        -2.9490   -1.9130    5.3130 h1        1 MOL     -0.014996
    122 H56        -0.9780   -1.3200    5.4790 ho        1 MOL      0.413326
    123 H57        -4.8210   -0.0870    5.7400 hc        1 MOL      0.109951
    124 H58        -3.9350   -0.9720    7.0840 hc        1 MOL      0.109951
    125 H59        -3.4860    0.6590    6.7250 hc        1 MOL      0.109951
    126 N11        -5.0000    0.2780    2.8490 n         1 MOL     -0.102618
    127 C39        -6.3100   -0.0090    2.2170 c3        1 MOL     -0.464465
    128 C40        -5.9900   -0.7880    0.9170 c         1 MOL      0.546329
    129 O19        -5.1780   -0.3950    0.0850 o         1 MOL     -0.495478
    130 C41        -7.1270    1.1840    1.8400 c3        1 MOL      0.660401
    131 C42        -8.4420    0.8040    1.1550 c3        1 MOL     -0.252194
    132 O20        -7.3090    2.0490    2.9110 oh        1 MOL     -0.701855
    133 H60        -4.7120    1.1890    3.1920 hn        1 MOL      0.164735
    134 H61        -6.9630   -0.6250    2.8390 h1        1 MOL      0.141382
    135 H62        -6.4240    1.7280    1.2100 h1        1 MOL     -0.096455
    136 H63        -6.5520    2.2260    3.4750 ho        1 MOL      0.421654
    137 H64        -8.9210   -0.0400    1.6580 hc        1 MOL      0.063058
    138 H65        -9.0800    1.6800    1.1960 hc        1 MOL      0.063058
    139 H66        -8.2460    0.6390    0.0850 hc        1 MOL      0.063058
    140 N12        -6.6100   -1.9650    0.7780 n         1 MOL     -0.210442
    141 C43        -6.6900   -2.9130   -0.3490 c3        1 MOL      0.049406
    142 C44        -5.4680   -2.8680   -1.2980 c         1 MOL      0.524144
    143 O21        -5.4970   -2.1810   -2.3700 o         1 MOL     -0.533580
    144 C45        -8.0290   -2.7200   -1.0820 c3        1 MOL     -0.349430
    145 C46        -9.3130   -2.8080   -0.1960 c3        1 MOL      0.464704
    146 C47       -10.6640   -2.7080   -0.8890 c3        1 MOL     -0.398380
    147 C48       -10.7470   -1.4930   -1.7920 c3        1 MOL      0.174619
    148 N13       -12.0570   -1.3830   -2.4530 n4        1 MOL     -0.134614
    149 H67        -7.2010   -2.2070    1.5650 hn        1 MOL      0.187806
    150 H68        -6.6640   -3.9110    0.1000 h1        1 MOL      0.037272
    151 H69        -8.1300   -3.4880   -1.8500 hc        1 MOL      0.098485
    152 H70        -7.9970   -1.7350   -1.5500 hc        1 MOL      0.098485
    153 H71        -9.2820   -2.0050    0.5340 hc        1 MOL     -0.088291
    154 H72        -9.3260   -3.7180    0.4030 hc        1 MOL     -0.088291
    155 H73       -11.4260   -2.7280   -0.1110 hc        1 MOL      0.115259
    156 H74       -10.7620   -3.6100   -1.4950 hc        1 MOL      0.115259
    157 H75       -10.0960   -1.5980   -2.6640 hx        1 MOL      0.042657
    158 H76       -10.6150   -0.5050   -1.3460 hx        1 MOL      0.042657
    159 H77       -12.2920   -0.4590   -2.7710 hn        1 MOL      0.185552
    160 H78       -12.2680   -2.0890   -3.1520 hn        1 MOL      0.185552
    161 H79       -12.7930   -1.5300   -1.7760 hn        1 MOL      0.185552
    162 N14        -4.3420   -3.4060   -0.8550 n         1 MOL     -0.432230
    163 C49        -3.0950   -3.4100   -1.6160 c3        1 MOL      0.198187
    164 C50        -1.9520   -2.9100   -0.6270 c         1 MOL      0.495960
    165 O22        -1.4430   -1.8700   -1.0020 o         1 MOL     -0.669653
    166 C51        -2.8160   -4.8120   -2.3530 c3        1 MOL     -0.183260
    167 C52        -3.7420   -4.8840   -3.5570 c3        1 MOL     -0.255874
    168 C53        -3.7400   -6.1610   -4.3540 c         1 MOL      0.704400
    169 O23        -3.8180   -7.2740   -3.7390 o         1 MOL     -0.631169
    170 O24        -3.7580   -6.0950   -5.6310 o         1 MOL     -0.631169
    171 H80        -4.3750   -3.9050    0.0230 hn        1 MOL      0.269385
    172 H81        -3.1080   -2.5910   -2.3290 h1        1 MOL      0.079648
    173 H82        -2.8600   -5.6740   -1.6950 hc        1 MOL      0.091559
    174 H83        -1.8440   -4.9670   -2.7990 hc        1 MOL      0.091559
    175 H84        -3.3870   -4.0240   -4.1290 hc        1 MOL      0.078064
    176 H85        -4.7390   -4.6310   -3.2020 hc        1 MOL      0.078064
    177 N15        -1.5530   -3.5620    0.4580 n         1 MOL     -0.325639
    178 C54        -1.8360   -4.9580    0.8860 c3        1 MOL     -0.064401
    179 H86        -2.4580   -4.9450    1.7810 h1        1 MOL      0.054327
    180 H87        -2.3610   -5.4850    0.0880 h1        1 MOL      0.054327
    181 H88        -0.8990   -5.4690    1.1040 h1        1 MOL      0.054327
    182 H89        -0.7430   -3.1700    0.9010 hn        1 MOL      0.298980
    183 Ca1        -0.5530    0.5470   -0.6970 Ca        1 MOL      1.734504
    184 O25         1.0600   -0.7750   -2.3720 oh        1 MOL     -0.865995
    185 H90         1.7410   -1.2150   -1.8550 ho        1 MOL      0.426712
    186 H91         1.4860   -0.5780   -3.2040 ho        1 MOL      0.426712
    187 O26        -3.0420    0.7600   -1.2300 oh        1 MOL     -0.865995
    188 H92        -3.3670    0.7040   -2.1290 ho        1 MOL      0.426712
    189 H93        -3.7330    0.3600   -0.6960 ho        1 MOL      0.426712
@<TRIPOS>BOND
     1    1    2 1   
     2    1    4 1   
     3    1    5 1   
     4    1    6 1   
     5    2    3 2   
     6    2    7 1   
     7    7    8 1   
     8    7   15 1   
     9    8    9 1   
    10    8   11 1   
    11    8   16 1   
    12    9   10 2   
    13    9   19 1   
    14   11   12 1   
    15   11   17 1   
    16   11   18 1   
    17   12   13 1   
    18   12   14 1   
    19   19   20 1   
    20   19   28 1   
    21   20   21 1   
    22   20   23 1   
    23   20   29 1   
    24   21   22 2   
    25   21   41 1   
    26   23   24 1   
    27   23   30 1   
    28   23   31 1   
    29   24   25 1   
    30   24   32 1   
    31   24   33 1   
    32   25   26 1   
    33   25   34 1   
    34   25   35 1   
    35   26   27 1   
    36   26   36 1   
    37   26   37 1   
    38   27   38 1   
    39   27   39 1   
    40   27   40 1   
    41   41   42 1   
    42   41   49 1   
    43   42   43 1   
    44   42   45 1   
    45   42   50 1   
    46   43   44 2   
    47   43   53 1   
    48   45   46 1   
    49   45   51 1   
    50   45   52 1   
    51   46   47 1   
    52   46   48 1   
    53   53   54 1   
    54   53   57 1   
    55   54   55 1   
    56   54   58 1   
    57   54   59 1   
    58   55   56 2   
    59   55   60 1   
    60   60   61 1   
    61   60   68 1   
    62   61   62 1   
    63   61   64 1   
    64   61   69 1   
    65   62   63 2   
    66   62   72 1   
    67   64   65 1   
    68   64   70 1   
    69   64   71 1   
    70   65   66 1   
    71   65   67 1   
    72   72   73 1   
    73   72   76 1   
    74   73   74 1   
    75   73   77 1   
    76   73   78 1   
    77   74   75 2   
    78   74   79 1   
    79   79   80 1   
    80   79   86 1   
    81   80   81 1   
    82   80   83 1   
    83   80   87 1   
    84   81   82 2   
    85   81   93 1   
    86   83   84 1   
    87   83   85 1   
    88   83   88 1   
    89   84   90 1   
    90   84   91 1   
    91   84   92 1   
    92   85   89 1   
    93   93   94 1   
    94   93  101 1   
    95   94   95 1   
    96   94   97 1   
    97   94  102 1   
    98   95   96 2   
    99   95  112 1   
   100   97   98 1   
   101   97   99 1   
   102   97  103 1   
   103   98  100 1   
   104   98  104 1   
   105   98  105 1   
   106   99  106 1   
   107   99  107 1   
   108   99  108 1   
   109  100  109 1   
   110  100  110 1   
   111  100  111 1   
   112  112  113 1   
   113  112  119 1   
   114  113  114 1   
   115  113  116 1   
   116  113  120 1   
   117  114  115 2   
   118  114  126 1   
   119  116  117 1   
   120  116  118 1   
   121  116  121 1   
   122  117  123 1   
   123  117  124 1   
   124  117  125 1   
   125  118  122 1   
   126  126  127 1   
   127  126  133 1   
   128  127  128 1   
   129  127  130 1   
   130  127  134 1   
   131  128  129 2   
   132  128  140 1   
   133  130  131 1   
   134  130  132 1   
   135  130  135 1   
   136  131  137 1   
   137  131  138 1   
   138  131  139 1   
   139  132  136 1   
   140  140  141 1   
   141  140  149 1   
   142  141  142 1   
   143  141  144 1   
   144  141  150 1   
   145  142  143 2   
   146  142  162 1   
   147  144  145 1   
   148  144  151 1   
   149  144  152 1   
   150  145  146 1   
   151  145  153 1   
   152  145  154 1   
   153  146  147 1   
   154  146  155 1   
   155  146  156 1   
   156  147  148 1   
   157  147  157 1   
   158  147  158 1   
   159  148  159 1   
   160  148  160 1   
   161  148  161 1   
   162  162  163 1   
   163  162  171 1   
   164  163  164 1   
   165  163  166 1   
   166  163  172 1   
   167  164  165 2   
   168  164  177 1   
   169  166  167 1   
   170  166  173 1   
   171  166  174 1   
   172  167  168 1   
   173  167  175 1   
   174  167  176 1   
   175  168  169 1   
   176  168  170 1   
   177  177  178 1   
   178  177  182 1   
   179  178  179 1   
   180  178  180 1   
   181  178  181 1   
   182  184  185 1   
   183  184  186 1   
   184  187  188 1   
   185  187  189 1   
@<TRIPOS>SUBSTRUCTURE
     1 MOL         1 TEMP              0 ****  ****    0 ROOT
