@<TRIPOS>MOLECULE
MOL
  192   187     1     0     0
SMALL
resp


@<TRIPOS>ATOM
      1 C1         -2.5650   -7.3700    2.1030 c3        1 MOL     -0.317254
      2 C2         -2.5490   -6.1120    1.2080 c         1 MOL      0.614736
      3 O1         -2.1060   -6.0960    0.0440 o         1 MOL     -0.569262
      4 H1         -3.5480   -7.8370    2.0550 hc        1 MOL      0.083685
      5 H2         -1.8110   -8.0760    1.7530 hc        1 MOL      0.083685
      6 H3         -2.3480   -7.0870    3.1330 hc        1 MOL      0.083685
      7 N1         -3.0780   -4.9830    1.7400 n         1 MOL     -0.372309
      8 C3         -3.1500   -3.7590    1.1310 c3        1 MOL     -0.012655
      9 C4         -1.8310   -2.9670    1.2410 c         1 MOL      0.617603
     10 O2         -1.6660   -1.9910    0.5360 o         1 MOL     -0.552346
     11 C5         -4.3720   -2.9180    1.6530 c3        1 MOL     -0.195675
     12 C6         -4.4870   -2.5910    3.2090 c         1 MOL      0.661493
     13 O3         -4.2010   -3.4370    4.1370 o         1 MOL     -0.713361
     14 O4         -4.7900   -1.3980    3.4920 o         1 MOL     -0.713361
     15 H4         -3.3910   -4.9790    2.7050 hn        1 MOL      0.211566
     16 H5         -3.1960   -3.9410    0.0510 h1        1 MOL      0.115601
     17 H6         -5.2900   -3.4070    1.3280 hc        1 MOL      0.051029
     18 H7         -4.4340   -1.9770    1.1070 hc        1 MOL      0.051029
     19 N2         -0.8270   -3.4550    1.9670 n         1 MOL     -0.617215
     20 C7          0.4780   -2.7660    2.1650 c3        1 MOL      0.159957
     21 C8          1.5000   -3.3010    1.0850 c         1 MOL      0.632752
     22 O5          1.8120   -4.4990    1.1340 o         1 MOL     -0.572217
     23 C9          0.8850   -2.9020    3.5620 c3        1 MOL     -0.021809
     24 C10         0.1790   -1.8350    4.3770 c3        1 MOL      0.093170
     25 C11         0.6020   -1.9110    5.8410 c3        1 MOL     -0.008296
     26 C12         0.1170   -0.7070    6.7280 c3        1 MOL      0.024508
     27 N3         -1.2510   -0.3410    6.5020 n4        1 MOL     -0.311404
     28 H8         -1.0650   -4.2540    2.5420 hn        1 MOL      0.312021
     29 H9          0.4160   -1.7000    1.9800 h1        1 MOL      0.044726
     30 H10         1.9650   -2.7130    3.6070 hc        1 MOL      0.027180
     31 H11         0.7220   -3.9000    3.9840 hc        1 MOL      0.027180
     32 H12        -0.8930   -1.9850    4.2810 hc        1 MOL      0.005375
     33 H13         0.4230   -0.8460    3.9800 hc        1 MOL      0.005375
     34 H14         1.6610   -2.1590    5.9270 hc        1 MOL      0.019861
     35 H15        -0.0060   -2.7140    6.2550 hc        1 MOL      0.019861
     36 H16         0.8250    0.0900    6.5040 hx        1 MOL      0.068661
     37 H17         0.1790   -0.9200    7.7970 hx        1 MOL      0.068661
     38 H18        -1.8390   -1.1300    6.7260 hn        1 MOL      0.318099
     39 H19        -1.4650    0.4360    7.1120 hn        1 MOL      0.318099
     40 H20        -1.4320   -0.0080    5.5640 hn        1 MOL      0.318099
     41 N4          2.1420   -2.5470    0.1570 n         1 MOL     -0.653961
     42 C13         2.2950   -1.1170    0.1600 c3        1 MOL     -0.030805
     43 C14         2.6640   -0.4050    1.4810 c         1 MOL      0.617150
     44 O6          1.9600    0.4950    1.8940 o         1 MOL     -0.557373
     45 C15         1.1060   -0.4170   -0.5000 c3        1 MOL     -0.228441
     46 C16         0.8270   -0.8420   -1.9350 c         1 MOL      0.858420
     47 O7          1.7170   -1.3710   -2.6060 o         1 MOL     -0.790431
     48 O8         -0.2550   -0.6830   -2.4730 o         1 MOL     -0.790431
     49 H21         2.7690   -3.0480   -0.4540 hn        1 MOL      0.333497
     50 H22         3.1870   -0.9550   -0.4430 h1        1 MOL      0.122142
     51 H23         1.3750    0.6370   -0.5000 hc        1 MOL      0.089001
     52 H24         0.2320   -0.4190    0.1550 hc        1 MOL      0.089001
     53 N5          3.7890   -0.7520    2.0800 n         1 MOL     -0.647380
     54 C17         4.8610   -1.6090    1.4560 c3        1 MOL      0.338025
     55 C18         5.9520   -2.0530    2.3680 c         1 MOL      0.454216
     56 O9          5.6590   -2.1990    3.5480 o         1 MOL     -0.548113
     57 H25         4.0100   -0.2030    2.8920 hn        1 MOL      0.346892
     58 H26         5.2730   -1.1520    0.5600 h1        1 MOL     -0.007424
     59 H27         4.4040   -2.5310    1.0980 h1        1 MOL     -0.007424
     60 N6          7.0960   -2.4950    1.8860 n         1 MOL     -0.348749
     61 C19         7.5870   -2.4500    0.5820 c3        1 MOL     -0.026804
     62 C20         8.0600   -0.9970    0.2340 c         1 MOL      0.475683
     63 O10         8.1460   -0.0930    1.0960 o         1 MOL     -0.470638
     64 C21         8.8170   -3.4400    0.4400 c3        1 MOL     -0.229021
     65 C22         9.9370   -3.1280    1.4250 c         1 MOL      0.749651
     66 O11        10.9810   -2.5520    1.0180 o         1 MOL     -0.643831
     67 O12         9.8440   -3.5700    2.5720 o         1 MOL     -0.643831
     68 H28         7.8000   -2.8510    2.5200 hn        1 MOL      0.268488
     69 H29         6.8410   -2.8000   -0.1270 h1        1 MOL      0.039021
     70 H30         9.2200   -3.4280   -0.5680 hc        1 MOL      0.045462
     71 H31         8.4040   -4.4390    0.5680 hc        1 MOL      0.045462
     72 N7          8.2090   -0.6470   -1.0420 n         1 MOL     -0.319271
     73 C23         8.6390    0.7090   -1.5520 c3        1 MOL     -0.240549
     74 C24         7.4260    1.7420   -1.8450 c         1 MOL      0.528674
     75 O13         7.6160    2.9290   -1.7880 o         1 MOL     -0.523343
     76 H32         8.1060   -1.3160   -1.7900 hn        1 MOL      0.247322
     77 H33         9.1390    0.4660   -2.4910 h1        1 MOL      0.150963
     78 H34         9.4200    1.1430   -0.9260 h1        1 MOL      0.150963
     79 N8          6.1650    1.2830   -1.8850 n         1 MOL     -0.459522
     80 C25         5.0680    2.2220   -1.9340 c3        1 MOL      0.152656
     81 C26         4.6400    2.5740   -0.4740 c         1 MOL      0.581957
     82 O14         4.9110    1.8120    0.4640 o         1 MOL     -0.470318
     83 C27         3.8490    1.6130   -2.6780 c3        1 MOL      0.444555
     84 C28         4.1400    1.3570   -4.2080 c3        1 MOL     -0.495090
     85 O15         2.6080    2.3180   -2.7110 oh        1 MOL     -0.694277
     86 H35         6.0080    0.3350   -1.5900 hn        1 MOL      0.219690
     87 H36         5.4510    3.1030   -2.4650 h1        1 MOL      0.040449
     88 H37         3.6330    0.6430   -2.2130 h1        1 MOL     -0.052740
     89 H38         2.0030    1.8040   -3.2510 ho        1 MOL      0.429544
     90 H39         3.2070    1.2440   -4.7550 hc        1 MOL      0.113322
     91 H40         4.6840    2.2090   -4.6150 hc        1 MOL      0.113322
     92 H41         4.7910    0.4850   -4.2260 hc        1 MOL      0.113322
     93 N9          3.8090    3.5920   -0.2900 n         1 MOL     -0.519565
     94 C29         3.2230    4.0580    0.9720 c3        1 MOL     -0.025476
     95 C30         1.7340    4.2850    0.8010 c         1 MOL      0.606437
     96 O16         1.0460    4.6440    1.7580 o         1 MOL     -0.596126
     97 C31         3.9530    5.3770    1.4290 c3        1 MOL      0.104159
     98 C32         3.9270    6.5340    0.4350 c3        1 MOL     -0.055740
     99 C33         5.3550    4.9410    1.8190 c3        1 MOL     -0.390450
    100 C34         4.5730    7.7710    1.0360 c3        1 MOL     -0.089343
    101 H42         3.6400    4.1770   -1.0970 hn        1 MOL      0.242925
    102 H43         3.3250    3.2650    1.7180 h1        1 MOL      0.124386
    103 H44         3.4790    5.6920    2.3610 hc        1 MOL      0.027755
    104 H45         2.8680    6.6370    0.2320 hc        1 MOL      0.024602
    105 H46         4.3560    6.3050   -0.5510 hc        1 MOL      0.024602
    106 H47         6.0520    4.9030    0.9750 hc        1 MOL      0.116902
    107 H48         5.6690    5.7640    2.4690 hc        1 MOL      0.116902
    108 H49         5.3760    4.0320    2.4170 hc        1 MOL      0.116902
    109 H50         4.1580    8.0850    1.9900 hc        1 MOL      0.026638
    110 H51         5.6270    7.5940    1.2380 hc        1 MOL      0.026638
    111 H52         4.5050    8.6420    0.3850 hc        1 MOL      0.026638
    112 N10         1.1350    3.9990   -0.3770 n         1 MOL     -0.312378
    113 C35        -0.2430    4.5210   -0.7980 c3        1 MOL     -0.206405
    114 C36        -1.3360    3.6270   -0.2880 c         1 MOL      0.777043
    115 O17        -1.2100    2.3790   -0.3020 o         1 MOL     -0.557357
    116 C37        -0.2530    4.7210   -2.2870 c3        1 MOL      0.304774
    117 C38         0.4490    6.0390   -2.6570 c3        1 MOL     -0.340136
    118 O18        -1.6140    4.9920   -2.6020 oh        1 MOL     -0.613036
    119 H53         1.6560    3.5770   -1.1350 hn        1 MOL      0.249766
    120 H54        -0.4180    5.4590   -0.2920 h1        1 MOL      0.116870
    121 H55         0.1480    3.8560   -2.8090 h1        1 MOL      0.046831
    122 H56        -1.4850    5.4690   -3.4260 ho        1 MOL      0.388763
    123 H57         1.5010    5.7600   -2.7290 hc        1 MOL      0.086233
    124 H58         0.1600    6.3470   -3.6630 hc        1 MOL      0.086233
    125 H59         0.2010    6.8600   -1.9870 hc        1 MOL      0.086233
    126 N11        -2.3480    4.1950    0.4020 n         1 MOL     -0.521113
    127 C39        -3.6460    3.5040    0.9480 c3        1 MOL      0.139174
    128 C40        -4.5380    3.1030   -0.2370 c         1 MOL      0.534934
    129 O19        -4.4850    3.6890   -1.2560 o         1 MOL     -0.506751
    130 C41        -4.3780    4.3580    2.0650 c3        1 MOL      0.139092
    131 C42        -5.0060    5.6390    1.5440 c3        1 MOL     -0.258056
    132 O20        -3.3230    4.7320    2.9090 oh        1 MOL     -0.534275
    133 H60        -2.3770    5.2070    0.4370 hn        1 MOL      0.280273
    134 H61        -3.3410    2.5520    1.3880 h1        1 MOL      0.074151
    135 H62        -5.1270    3.7130    2.5280 h1        1 MOL      0.032064
    136 H63        -3.7970    5.3480    3.4830 ho        1 MOL      0.365534
    137 H64        -5.5870    6.2050    2.2740 hc        1 MOL      0.079123
    138 H65        -4.3100    6.3290    1.0680 hc        1 MOL      0.079123
    139 H66        -5.7650    5.3300    0.8340 hc        1 MOL      0.079123
    140 N12        -5.4230    2.1170   -0.1320 n         1 MOL     -0.437246
    141 C43        -6.6600    2.0520   -0.8120 c3        1 MOL      0.013869
    142 C44        -6.8870    0.7040   -1.5920 c         1 MOL      0.505475
    143 O21        -7.9900    0.4370   -2.0100 o         1 MOL     -0.536494
    144 C45        -7.8140    2.4810    0.0560 c3        1 MOL     -0.066237
    145 C46        -8.0580    1.4760    1.1490 c3        1 MOL     -0.090119
    146 C47        -8.4870    2.1390    2.4460 c3        1 MOL      0.094141
    147 C48        -9.9800    2.7200    2.2450 c3        1 MOL     -0.019247
    148 N13       -10.5740    3.1620    3.5750 n4        1 MOL     -0.220419
    149 H67        -5.3860    1.6990    0.7940 hn        1 MOL      0.235761
    150 H68        -6.6850    2.7420   -1.6530 h1        1 MOL      0.109421
    151 H69        -8.6930    2.4700   -0.5890 hc        1 MOL      0.025032
    152 H70        -7.5920    3.4750    0.4320 hc        1 MOL      0.025032
    153 H71        -7.1240    1.0010    1.4670 hc        1 MOL      0.074772
    154 H72        -8.7980    0.7160    0.8880 hc        1 MOL      0.074772
    155 H73        -7.8440    2.9870    2.7140 hc        1 MOL     -0.007076
    156 H74        -8.4400    1.4260    3.2740 hc        1 MOL     -0.007076
    157 H75       -10.6150    1.8980    1.9190 hx        1 MOL      0.090106
    158 H76        -9.9240    3.5430    1.5360 hx        1 MOL      0.090106
    159 H77       -10.0580    3.9620    3.9250 hn        1 MOL      0.241075
    160 H78       -11.5450    3.4310    3.5480 hn        1 MOL      0.241075
    161 H79       -10.4960    2.4260    4.2640 hn        1 MOL      0.241075
    162 N14        -5.8710   -0.2290   -1.7010 n         1 MOL     -0.238713
    163 C49        -5.9680   -1.4070   -2.6160 c3        1 MOL     -0.468010
    164 C50        -6.8240   -2.5550   -1.9110 c         1 MOL      0.535697
    165 O22        -6.3950   -3.2870   -1.0200 o         1 MOL     -0.459481
    166 C51        -4.5140   -1.6930   -3.1740 c3        1 MOL      0.169240
    167 C52        -4.2940   -2.8290   -4.2490 c3        1 MOL     -0.108579
    168 C53        -2.8240   -2.9080   -4.6540 c         1 MOL      0.753200
    169 O23        -2.2570   -1.9560   -5.2000 o         1 MOL     -0.812147
    170 O24        -2.1070   -3.8890   -4.3120 o         1 MOL     -0.812147
    171 H80        -4.9840   -0.0140   -1.2640 hn        1 MOL      0.243390
    172 H81        -6.5780   -1.1150   -3.4800 h1        1 MOL      0.150407
    173 H82        -3.9220   -2.0310   -2.3200 hc        1 MOL      0.064998
    174 H83        -4.0680   -0.7370   -3.4350 hc        1 MOL      0.064998
    175 H84        -4.8740   -2.5250   -5.1150 hc        1 MOL      0.026228
    176 H85        -4.6630   -3.7570   -3.8190 hc        1 MOL      0.026228
    177 N15        -8.0610   -2.7760   -2.3950 n         1 MOL     -0.266915
    178 C54        -9.0640   -3.8040   -1.8690 c3        1 MOL     -0.216804
    179 H86        -9.9660   -3.7790   -2.4820 h1        1 MOL      0.106810
    180 H87        -8.6230   -4.7990   -1.9140 h1        1 MOL      0.106810
    181 H88        -9.3200   -3.5670   -0.8360 h1        1 MOL      0.106810
    182 H89        -8.3090   -2.3370   -3.2690 hn        1 MOL      0.245165
    183 Ca1         0.2000   -2.6530   -4.4220 Ca        1 MOL      1.768905
    184 O25         2.6120   -2.8660   -5.4240 oh        1 MOL     -0.869493
    185 H90         3.2390   -2.3440   -5.9300 ho        1 MOL      0.433394
    186 H91         3.0780   -3.6830   -5.2230 ho        1 MOL      0.433394
    187 O26        -0.1660   -3.6860   -1.8970 oh        1 MOL     -0.869493
    188 H92        -0.6780   -3.4090   -1.1420 ho        1 MOL      0.433394
    189 H93         0.1440   -4.5690   -1.6720 ho        1 MOL      0.433394
    190 O27         0.8850   -0.4510   -5.9630 oh        1 MOL     -0.869493
    191 H94         1.0860    0.4120   -5.6040 ho        1 MOL      0.433394
    192 H95         0.7870   -0.3090   -6.9010 ho        1 MOL      0.433394
@<TRIPOS>BOND
     1    1    2 1   
     2    1    4 1   
     3    1    5 1   
     4    1    6 1   
     5    2    3 2   
     6    2    7 1   
     7    7    8 1   
     8    7   15 1   
     9    8    9 1   
    10    8   11 1   
    11    8   16 1   
    12    9   10 2   
    13    9   19 1   
    14   11   12 1   
    15   11   17 1   
    16   11   18 1   
    17   12   13 1   
    18   12   14 1   
    19   19   20 1   
    20   19   28 1   
    21   20   21 1   
    22   20   23 1   
    23   20   29 1   
    24   21   22 2   
    25   21   41 1   
    26   23   24 1   
    27   23   30 1   
    28   23   31 1   
    29   24   25 1   
    30   24   32 1   
    31   24   33 1   
    32   25   26 1   
    33   25   34 1   
    34   25   35 1   
    35   26   27 1   
    36   26   36 1   
    37   26   37 1   
    38   27   38 1   
    39   27   39 1   
    40   27   40 1   
    41   41   42 1   
    42   41   49 1   
    43   42   43 1   
    44   42   45 1   
    45   42   50 1   
    46   43   44 2   
    47   43   53 1   
    48   45   46 1   
    49   45   51 1   
    50   45   52 1   
    51   46   47 1   
    52   46   48 1   
    53   53   54 1   
    54   53   57 1   
    55   54   55 1   
    56   54   58 1   
    57   54   59 1   
    58   55   56 2   
    59   55   60 1   
    60   60   61 1   
    61   60   68 1   
    62   61   62 1   
    63   61   64 1   
    64   61   69 1   
    65   62   63 2   
    66   62   72 1   
    67   64   65 1   
    68   64   70 1   
    69   64   71 1   
    70   65   66 1   
    71   65   67 1   
    72   72   73 1   
    73   72   76 1   
    74   73   74 1   
    75   73   77 1   
    76   73   78 1   
    77   74   75 2   
    78   74   79 1   
    79   79   80 1   
    80   79   86 1   
    81   80   81 1   
    82   80   83 1   
    83   80   87 1   
    84   81   82 2   
    85   81   93 1   
    86   83   84 1   
    87   83   85 1   
    88   83   88 1   
    89   84   90 1   
    90   84   91 1   
    91   84   92 1   
    92   85   89 1   
    93   93   94 1   
    94   93  101 1   
    95   94   95 1   
    96   94   97 1   
    97   94  102 1   
    98   95   96 2   
    99   95  112 1   
   100   97   98 1   
   101   97   99 1   
   102   97  103 1   
   103   98  100 1   
   104   98  104 1   
   105   98  105 1   
   106   99  106 1   
   107   99  107 1   
   108   99  108 1   
   109  100  109 1   
   110  100  110 1   
   111  100  111 1   
   112  112  113 1   
   113  112  119 1   
   114  113  114 1   
   115  113  116 1   
   116  113  120 1   
   117  114  115 2   
   118  114  126 1   
   119  116  117 1   
   120  116  118 1   
   121  116  121 1   
   122  117  123 1   
   123  117  124 1   
   124  117  125 1   
   125  118  122 1   
   126  126  127 1   
   127  126  133 1   
   128  127  128 1   
   129  127  130 1   
   130  127  134 1   
   131  128  129 2   
   132  128  140 1   
   133  130  131 1   
   134  130  132 1   
   135  130  135 1   
   136  131  137 1   
   137  131  138 1   
   138  131  139 1   
   139  132  136 1   
   140  140  141 1   
   141  140  149 1   
   142  141  142 1   
   143  141  144 1   
   144  141  150 1   
   145  142  143 2   
   146  142  162 1   
   147  144  145 1   
   148  144  151 1   
   149  144  152 1   
   150  145  146 1   
   151  145  153 1   
   152  145  154 1   
   153  146  147 1   
   154  146  155 1   
   155  146  156 1   
   156  147  148 1   
   157  147  157 1   
   158  147  158 1   
   159  148  159 1   
   160  148  160 1   
   161  148  161 1   
   162  162  163 1   
   163  162  171 1   
   164  163  164 1   
   165  163  166 1   
   166  163  172 1   
   167  164  165 2   
   168  164  177 1   
   169  166  167 1   
   170  166  173 1   
   171  166  174 1   
   172  167  168 1   
   173  167  175 1   
   174  167  176 1   
   175  168  169 1   
   176  168  170 1   
   177  177  178 1   
   178  177  182 1   
   179  178  179 1   
   180  178  180 1   
   181  178  181 1   
   182  184  185 1   
   183  184  186 1   
   184  187  188 1   
   185  187  189 1   
   186  190  191 1   
   187  190  192 1   
@<TRIPOS>SUBSTRUCTURE
     1 MOL         1 TEMP              0 ****  ****    0 ROOT
