@<TRIPOS>MOLECULE
MOL
  189   185     1     0     0
SMALL
resp


@<TRIPOS>ATOM
      1 C1         -5.5800   -4.6740    2.7420 c3        1 MOL     -0.213069
      2 C2         -4.3220   -4.0550    1.9900 c         1 MOL      0.592564
      3 O1         -3.7530   -3.0710    2.4480 o         1 MOL     -0.470462
      4 H1         -6.3490   -4.9300    2.0130 hc        1 MOL      0.030014
      5 H2         -5.2770   -5.5730    3.2800 hc        1 MOL      0.030014
      6 H3         -5.9780   -3.9450    3.4470 hc        1 MOL      0.030014
      7 N1         -4.0210   -4.5810    0.7540 n         1 MOL     -0.745152
      8 C3         -2.9980   -4.1600   -0.2210 c3        1 MOL      0.047717
      9 C4         -1.5500   -4.3090    0.2350 c         1 MOL      0.635137
     10 O2         -0.6890   -3.8880   -0.5260 o         1 MOL     -0.604626
     11 C5         -3.3620   -2.7610   -0.8110 c3        1 MOL     -0.242604
     12 C6         -4.8950   -2.6360   -0.9760 c         1 MOL      0.737021
     13 O3         -5.5220   -3.4450   -1.6410 o         1 MOL     -0.761345
     14 O4         -5.5150   -1.7390   -0.2920 o         1 MOL     -0.761345
     15 H4         -4.7360   -5.2080    0.4410 hn        1 MOL      0.383002
     16 H5         -3.0790   -4.8640   -1.0410 h1        1 MOL      0.087227
     17 H6         -2.8320   -2.6880   -1.7570 hc        1 MOL      0.130092
     18 H7         -2.8520   -2.0060   -0.2100 hc        1 MOL      0.130092
     19 N2         -1.2760   -4.8070    1.4210 n         1 MOL     -0.493109
     20 C7          0.0790   -4.9710    2.0140 c3        1 MOL      0.081720
     21 C8          0.6270   -6.2630    1.4180 c         1 MOL      0.621139
     22 O5          0.0590   -7.3200    1.5730 o         1 MOL     -0.617827
     23 C9          0.0430   -4.9990    3.6060 c3        1 MOL     -0.018864
     24 C10        -0.7700   -3.8610    4.1060 c3        1 MOL      0.087335
     25 C11         1.4670   -4.8610    4.1400 c3        1 MOL      0.068277
     26 C12        -0.6320   -3.3390    5.5130 c3        1 MOL     -0.370748
     27 H8         -2.0170   -5.0920    2.0380 hn        1 MOL      0.290394
     28 H9          0.6200   -4.0820    1.6810 h1        1 MOL      0.000141
     29 H10        -0.4260   -5.9400    3.9050 hc        1 MOL     -0.019162
     30 H11        -1.8060   -4.1340    3.8920 hc        1 MOL      0.056654
     31 H12        -0.5940   -3.0000    3.4630 hc        1 MOL      0.056654
     32 H13         2.1120   -5.6950    3.8920 hc        1 MOL     -0.027480
     33 H14         1.8480   -3.9570    3.6700 hc        1 MOL     -0.027480
     34 H15         1.5020   -4.6990    5.2200 hc        1 MOL     -0.027480
     35 H16         0.4040   -3.0530    5.6880 hc        1 MOL      0.088376
     36 H17        -1.3880   -2.5530    5.6380 hc        1 MOL      0.088376
     37 H18        -0.9240   -4.0980    6.2230 hc        1 MOL      0.088376
     38 N3          1.7330   -6.2850    0.6540 n         1 MOL     -0.449167
     39 C13         2.3950   -5.0970    0.0660 c3        1 MOL      0.157882
     40 C14         2.8370   -5.3670   -1.4220 c         1 MOL      0.376107
     41 O6          3.2030   -6.5420   -1.6850 o         1 MOL     -0.533143
     42 C15         3.6980   -4.7540    0.8100 c3        1 MOL     -0.364929
     43 C16         4.1240   -3.2770    0.4790 c         1 MOL      0.715082
     44 O7          4.9420   -3.2320   -0.4750 o         1 MOL     -0.655021
     45 O8          3.5750   -2.2840    0.9490 o         1 MOL     -0.655021
     46 H19         2.1610   -7.1940    0.5380 hn        1 MOL      0.282565
     47 H20         1.6490   -4.2920    0.0620 h1        1 MOL      0.037521
     48 H21         4.4990   -5.4390    0.5370 hc        1 MOL      0.081323
     49 H22         3.6010   -4.8710    1.8860 hc        1 MOL      0.081323
     50 N4          2.9900   -4.3210   -2.2620 n         1 MOL     -0.202951
     51 C17         3.6460   -4.4400   -3.6240 c3        1 MOL     -0.197805
     52 C18         4.1340   -3.0580   -4.1870 c         1 MOL      0.538501
     53 O9          3.8530   -2.6850   -5.3440 o         1 MOL     -0.553220
     54 H23         2.6570   -3.4210   -1.9200 hn        1 MOL      0.279640
     55 H24         2.8790   -4.9480   -4.2260 h1        1 MOL      0.098230
     56 H25         4.5330   -5.0540   -3.5020 h1        1 MOL      0.098230
     57 N5          4.6410   -2.1220   -3.3530 n         1 MOL     -0.413323
     58 C19         5.5160   -1.1020   -3.9280 c3        1 MOL      0.071300
     59 C20         6.7850   -0.8420   -2.9900 c         1 MOL      0.303876
     60 O10         7.7210   -0.2880   -3.4860 o         1 MOL     -0.516695
     61 C21         4.6510    0.1290   -4.1820 c3        1 MOL     -0.186247
     62 C22         4.0630    0.6440   -2.8640 c         1 MOL      0.672641
     63 O11         4.8520    1.0850   -1.9930 o         1 MOL     -0.669753
     64 O12         2.8600    0.5980   -2.6340 o         1 MOL     -0.669753
     65 H26         4.5810   -2.2750   -2.3560 hn        1 MOL      0.345014
     66 H27         5.8070   -1.4100   -4.9310 h1        1 MOL      0.071601
     67 H28         3.7900   -0.1800   -4.7780 hc        1 MOL      0.044258
     68 H29         5.1850    0.8800   -4.7730 hc        1 MOL      0.044258
     69 N6          6.7640   -1.3140   -1.7230 n         1 MOL     -0.085257
     70 C23         7.9010   -1.0850   -0.7370 c3        1 MOL     -0.239222
     71 C24         8.0290    0.3800   -0.1050 c         1 MOL      0.639314
     72 O13         8.8790    0.6770    0.7840 o         1 MOL     -0.623098
     73 H30         5.9790   -1.8770   -1.4460 hn        1 MOL      0.092218
     74 H31         8.8480   -1.4140   -1.1710 h1        1 MOL      0.105904
     75 H32         7.6930   -1.7490    0.1010 h1        1 MOL      0.105904
     76 N7          7.1750    1.3450   -0.5580 n         1 MOL     -0.429725
     77 C25         7.2120    2.7850   -0.1860 c3        1 MOL      0.448011
     78 C26         6.8660    3.0990    1.2890 c         1 MOL      0.195747
     79 O14         7.2030    4.2090    1.7600 o         1 MOL     -0.508408
     80 C27         8.4190    3.5260   -0.8060 c3        1 MOL     -0.165652
     81 C28         8.6020    3.1760   -2.2620 c3        1 MOL     -0.092192
     82 C29         9.7750    4.0130   -2.9180 c         1 MOL      0.704228
     83 N8          9.9380    3.8990   -4.2250 n         1 MOL     -0.868010
     84 O15        10.5630    4.6780   -2.3240 o         1 MOL     -0.570818
     85 H33         6.6430    1.1570   -1.3940 hn        1 MOL      0.245536
     86 H34         6.4040    3.1500   -0.8120 h1        1 MOL     -0.003068
     87 H35         9.2150    3.1340   -0.1740 hc        1 MOL      0.046567
     88 H36         8.3230    4.6020   -0.6940 hc        1 MOL      0.046567
     89 H37         7.6890    3.3940   -2.8130 hc        1 MOL      0.024651
     90 H38         8.7550    2.1220   -2.5040 hc        1 MOL      0.024651
     91 H39         9.2640    3.3090   -4.6790 hn        1 MOL      0.365572
     92 H40        10.7100    4.3340   -4.7250 hn        1 MOL      0.365572
     93 N9          6.0800    2.2860    2.0460 n         1 MOL     -0.108606
     94 C30         5.7690    2.4780    3.4040 c3        1 MOL     -0.054817
     95 C31         4.3010    2.2510    3.6980 c         1 MOL      0.374404
     96 O16         3.8760    2.3770    4.8640 o         1 MOL     -0.547966
     97 C32         6.6620    1.6440    4.2760 c3        1 MOL      0.294557
     98 C33         6.6940    0.1030    4.0710 c3        1 MOL     -0.292447
     99 C34         8.1250    2.1200    4.1190 c3        1 MOL     -0.292447
    100 H41         5.7960    1.4210    1.6180 hn        1 MOL      0.195866
    101 H42         5.9680    3.5010    3.6880 h1        1 MOL      0.092593
    102 H43         6.3600    1.7640    5.3160 hc        1 MOL     -0.052262
    103 H44         7.3800   -0.3560    4.7800 hc        1 MOL      0.062972
    104 H45         5.6720   -0.2700    4.1560 hc        1 MOL      0.062972
    105 H46         7.1170   -0.0700    3.0770 hc        1 MOL      0.062972
    106 H47         8.4560    1.9790    3.0900 hc        1 MOL      0.062972
    107 H48         8.2980    3.1450    4.4540 hc        1 MOL      0.062972
    108 H49         8.8270    1.5740    4.7310 hc        1 MOL      0.062972
    109 N10         3.5110    1.9230    2.6550 n         1 MOL     -0.151990
    110 C35         2.0880    1.5460    2.8310 c3        1 MOL      0.128719
    111 C36         1.1690    1.7340    1.5600 c         1 MOL      0.361486
    112 O17         1.6980    1.9690    0.5020 o         1 MOL     -0.416392
    113 C37         2.0220    0.0340    3.2910 c3        1 MOL      0.099098
    114 C38         0.7470   -0.7160    2.8970 c         1 MOL      0.419997
    115 N11         0.7970   -1.5950    1.9190 n         1 MOL     -0.512966
    116 O18        -0.3030   -0.4940    3.3950 o         1 MOL     -0.561316
    117 H50         3.9340    2.0620    1.7460 hn        1 MOL      0.098317
    118 H51         1.7830    2.1760    3.6640 h1        1 MOL      0.023445
    119 H52         2.0910    0.0040    4.3790 hc        1 MOL     -0.008843
    120 H53         2.9310   -0.4170    2.8870 hc        1 MOL     -0.008843
    121 H54         1.6750   -1.6210    1.4150 hn        1 MOL      0.321888
    122 H55        -0.0390   -2.0090    1.5290 hn        1 MOL      0.321888
    123 N12        -0.1860    1.7460    1.6640 n         1 MOL     -0.541714
    124 C39        -1.0740    2.0410    0.4760 c3        1 MOL      0.417924
    125 C40        -2.3200    2.8360    0.9530 c         1 MOL      0.492960
    126 O19        -2.7260    2.6890    2.0880 o         1 MOL     -0.566822
    127 C41        -1.5260    0.7310   -0.1920 c3        1 MOL     -0.194973
    128 C42        -2.2780    1.0370   -1.5020 ca        1 MOL     -0.067370
    129 C43        -1.4650    1.4310   -2.5900 ca        1 MOL     -0.082769
    130 C44        -3.6730    1.0700   -1.5620 ca        1 MOL     -0.082769
    131 C45        -2.1600    1.8790   -3.7680 ca        1 MOL     -0.259814
    132 C46        -4.2940    1.4120   -2.7670 ca        1 MOL     -0.259814
    133 C47        -3.5500    1.8410   -3.8830 ca        1 MOL      0.278189
    134 O20        -4.1180    2.2290   -5.0360 oh        1 MOL     -0.493384
    135 H56        -0.5830    1.5030    2.5600 hn        1 MOL      0.298309
    136 H57        -0.5750    2.6390   -0.2950 h1        1 MOL     -0.007059
    137 H58        -2.2990    0.2970    0.4460 hc        1 MOL      0.077000
    138 H59        -0.6760    0.0610   -0.3170 hc        1 MOL      0.077000
    139 H60        -0.3940    1.5500   -2.4850 ha        1 MOL      0.167177
    140 H61        -4.2220    1.0010   -0.6370 ha        1 MOL      0.167177
    141 H62        -1.5430    2.3000   -4.5510 ha        1 MOL      0.147154
    142 H63        -5.3730    1.4300   -2.8310 ha        1 MOL      0.147154
    143 H64        -5.0680    2.2390   -4.9050 ho        1 MOL      0.356929
    144 N13        -2.8850    3.7360    0.1590 n         1 MOL     -0.720971
    145 C48        -3.8760    4.7750    0.5350 c3        1 MOL      0.340429
    146 C49        -5.0210    4.7520   -0.5350 c         1 MOL      0.480001
    147 O21        -4.9010    5.3300   -1.6050 o         1 MOL     -0.488212
    148 C50        -3.1660    6.1600    0.8290 c3        1 MOL      0.308794
    149 C51        -4.0430    7.3900    1.0480 c3        1 MOL     -0.307800
    150 C52        -4.3260    8.1770   -0.2490 c         1 MOL      0.658886
    151 O22        -3.3700    8.7850   -0.8100 o         1 MOL     -0.647884
    152 O23        -5.4770    8.1600   -0.6740 o         1 MOL     -0.647884
    153 H65        -2.4920    3.9090   -0.7570 hn        1 MOL      0.340324
    154 H66        -4.1910    4.4540    1.5340 h1        1 MOL      0.052869
    155 H67        -2.4690    6.3230    0.0030 hc        1 MOL     -0.093437
    156 H68        -2.6180    5.9570    1.7430 hc        1 MOL     -0.093437
    157 H69        -3.5460    8.0260    1.7800 hc        1 MOL      0.047454
    158 H70        -4.9880    7.1610    1.5330 hc        1 MOL      0.047454
    159 N14        -6.1440    4.0990   -0.3600 n         1 MOL     -0.492846
    160 C53        -6.4020    3.0950    0.6900 c3        1 MOL     -0.012963
    161 C54        -6.3970    3.6630    2.1840 c         1 MOL      0.382501
    162 O24        -6.8250    4.7940    2.4290 o         1 MOL     -0.539651
    163 C55        -7.6810    2.2550    0.4630 c3        1 MOL      0.162916
    164 C56        -7.6050    1.4080   -0.7930 c3        1 MOL     -0.085730
    165 C57        -8.9650    0.7190   -1.0460 c         1 MOL      0.880785
    166 O25        -9.8140    1.2890   -1.8200 o         1 MOL     -0.793703
    167 O26        -9.2110   -0.4200   -0.6110 o         1 MOL     -0.793703
    168 H71        -6.7750    4.1220   -1.1560 hn        1 MOL      0.313560
    169 H72        -5.5760    2.3890    0.6900 h1        1 MOL      0.116174
    170 H73        -8.5660    2.8610    0.2700 hc        1 MOL     -0.046052
    171 H74        -8.0000    1.6800    1.3330 hc        1 MOL     -0.046052
    172 H75        -6.8950    0.6170   -0.5220 hc        1 MOL     -0.053863
    173 H76        -7.1880    1.9040   -1.6690 hc        1 MOL     -0.053863
    174 N15        -5.9770    2.8820    3.1130 n         1 MOL     -0.120915
    175 C58        -5.9460    3.2940    4.5190 c3        1 MOL     -0.530225
    176 H77        -4.9260    3.5650    4.7960 h1        1 MOL      0.180984
    177 H78        -6.6000    4.1550    4.6610 h1        1 MOL      0.180984
    178 H79        -6.2850    2.4710    5.1470 h1        1 MOL      0.180984
    179 H80        -5.7060    1.9390    2.8490 hn        1 MOL      0.232287
    180 Ca1        -7.9590   -2.6060   -1.2320 Ca        1 MOL      1.640260
    181 O27        -6.6630   -0.7630   -3.0730 oh        1 MOL     -0.905359
    182 H81        -5.8150   -0.8510   -3.5180 ho        1 MOL      0.424840
    183 H82        -7.1930   -0.2460   -3.6830 ho        1 MOL      0.424840
    184 O28        -9.9190   -2.4560   -3.0850 oh        1 MOL     -0.905359
    185 H83       -10.7080   -1.9300   -3.1600 ho        1 MOL      0.424840
    186 H84        -9.3790   -2.1950   -3.8360 ho        1 MOL      0.424840
    187 O29        -8.4440   -4.9900   -2.5470 oh        1 MOL     -0.905359
    188 H85        -9.2440   -5.0300   -3.0770 ho        1 MOL      0.424840
    189 H86        -7.9520   -5.7690   -2.7970 ho        1 MOL      0.424840
@<TRIPOS>BOND
     1    1    2 1   
     2    1    4 1   
     3    1    5 1   
     4    1    6 1   
     5    2    3 2   
     6    2    7 1   
     7    7    8 1   
     8    7   15 1   
     9    8    9 1   
    10    8   11 1   
    11    8   16 1   
    12    9   10 2   
    13    9   19 1   
    14   11   12 1   
    15   11   17 1   
    16   11   18 1   
    17   12   13 1   
    18   12   14 1   
    19   19   20 1   
    20   19   27 1   
    21   20   21 1   
    22   20   23 1   
    23   20   28 1   
    24   21   22 2   
    25   21   38 1   
    26   23   24 1   
    27   23   25 1   
    28   23   29 1   
    29   24   26 1   
    30   24   30 1   
    31   24   31 1   
    32   25   32 1   
    33   25   33 1   
    34   25   34 1   
    35   26   35 1   
    36   26   36 1   
    37   26   37 1   
    38   38   39 1   
    39   38   46 1   
    40   39   40 1   
    41   39   42 1   
    42   39   47 1   
    43   40   41 2   
    44   40   50 1   
    45   42   43 1   
    46   42   48 1   
    47   42   49 1   
    48   43   44 1   
    49   43   45 1   
    50   50   51 1   
    51   50   54 1   
    52   51   52 1   
    53   51   55 1   
    54   51   56 1   
    55   52   53 2   
    56   52   57 1   
    57   57   58 1   
    58   57   65 1   
    59   58   59 1   
    60   58   61 1   
    61   58   66 1   
    62   59   60 2   
    63   59   69 1   
    64   61   62 1   
    65   61   67 1   
    66   61   68 1   
    67   62   63 1   
    68   62   64 1   
    69   69   70 1   
    70   69   73 1   
    71   70   71 1   
    72   70   74 1   
    73   70   75 1   
    74   71   72 2   
    75   71   76 1   
    76   76   77 1   
    77   76   85 1   
    78   77   78 1   
    79   77   80 1   
    80   77   86 1   
    81   78   79 2   
    82   78   93 1   
    83   80   81 1   
    84   80   87 1   
    85   80   88 1   
    86   81   82 1   
    87   81   89 1   
    88   81   90 1   
    89   82   83 1   
    90   82   84 2   
    91   83   91 1   
    92   83   92 1   
    93   93   94 1   
    94   93  100 1   
    95   94   95 1   
    96   94   97 1   
    97   94  101 1   
    98   95   96 2   
    99   95  109 1   
   100   97   98 1   
   101   97   99 1   
   102   97  102 1   
   103   98  103 1   
   104   98  104 1   
   105   98  105 1   
   106   99  106 1   
   107   99  107 1   
   108   99  108 1   
   109  109  110 1   
   110  109  117 1   
   111  110  111 1   
   112  110  113 1   
   113  110  118 1   
   114  111  112 2   
   115  111  123 1   
   116  113  114 1   
   117  113  119 1   
   118  113  120 1   
   119  114  115 1   
   120  114  116 2   
   121  115  121 1   
   122  115  122 1   
   123  123  124 1   
   124  123  135 1   
   125  124  125 1   
   126  124  127 1   
   127  124  136 1   
   128  125  126 2   
   129  125  144 1   
   130  127  128 1   
   131  127  137 1   
   132  127  138 1   
   133  128  129 ar  
   134  128  130 ar  
   135  129  131 ar  
   136  129  139 1   
   137  130  132 ar  
   138  130  140 1   
   139  131  133 ar  
   140  131  141 1   
   141  132  133 ar  
   142  132  142 1   
   143  133  134 1   
   144  134  143 1   
   145  144  145 1   
   146  144  153 1   
   147  145  146 1   
   148  145  148 1   
   149  145  154 1   
   150  146  147 2   
   151  146  159 1   
   152  148  149 1   
   153  148  155 1   
   154  148  156 1   
   155  149  150 1   
   156  149  157 1   
   157  149  158 1   
   158  150  151 1   
   159  150  152 1   
   160  159  160 1   
   161  159  168 1   
   162  160  161 1   
   163  160  163 1   
   164  160  169 1   
   165  161  162 2   
   166  161  174 1   
   167  163  164 1   
   168  163  170 1   
   169  163  171 1   
   170  164  165 1   
   171  164  172 1   
   172  164  173 1   
   173  165  166 1   
   174  165  167 1   
   175  174  175 1   
   176  174  179 1   
   177  175  176 1   
   178  175  177 1   
   179  175  178 1   
   180  181  182 1   
   181  181  183 1   
   182  184  185 1   
   183  184  186 1   
   184  187  188 1   
   185  187  189 1   
@<TRIPOS>SUBSTRUCTURE
     1 MOL         1 TEMP              0 ****  ****    0 ROOT
