@<TRIPOS>MOLECULE
MOL
  181   177     1     0     0
SMALL
resp


@<TRIPOS>ATOM
      1 C1          3.2910   -1.6160    4.2550 c3        1 MOL     -0.404512
      2 C2          4.4870   -0.9610    3.5780 c         1 MOL      0.649319
      3 O1          4.3070   -0.1140    2.7560 o         1 MOL     -0.550536
      4 H1          3.5560   -1.8870    5.2770 hc        1 MOL      0.101305
      5 H2          2.4550   -0.9170    4.2700 hc        1 MOL      0.101305
      6 H3          3.0070   -2.5120    3.7040 hc        1 MOL      0.101305
      7 N1          5.7430   -1.2950    3.9000 n         1 MOL     -0.525491
      8 C3          6.9210   -0.5090    3.3510 c3        1 MOL      0.210115
      9 C4          6.9750   -0.6860    1.8060 c         1 MOL      0.329128
     10 O2          6.5350   -1.6570    1.1720 o         1 MOL     -0.485300
     11 C5          8.2440   -0.9180    4.0100 c3        1 MOL     -0.221838
     12 C6          9.5090   -0.2630    3.5070 c         1 MOL      0.725499
     13 O3         10.0810   -0.6130    2.4470 o         1 MOL     -0.732438
     14 O4         10.0140    0.6500    4.1450 o         1 MOL     -0.732438
     15 H4          5.8590   -1.9640    4.6400 hn        1 MOL      0.285495
     16 H5          6.6640    0.5360    3.5590 h1        1 MOL      0.032265
     17 H6          8.3440   -2.0060    4.0020 hc        1 MOL      0.024803
     18 H7          8.1770   -0.6440    5.0600 hc        1 MOL      0.024803
     19 N2          7.5610    0.3340    1.1510 n         1 MOL     -0.295268
     20 C7          7.5190    0.4110   -0.3200 c3        1 MOL      0.140958
     21 C8          6.1130    0.7190   -0.7620 c         1 MOL      0.456806
     22 O5          5.4060    1.4160   -0.0280 o         1 MOL     -0.536137
     23 C9          8.4130    1.5460   -0.7280 c3        1 MOL     -0.130586
     24 H8          7.8670    1.1570    1.6570 hn        1 MOL      0.272431
     25 H9          7.9540   -0.4650   -0.8130 h1        1 MOL      0.037449
     26 H10         8.2310    1.8720   -1.7540 hc        1 MOL      0.035469
     27 H11         8.1110    2.3720   -0.0790 hc        1 MOL      0.035469
     28 H12         9.4700    1.3710   -0.5460 hc        1 MOL      0.035469
     29 N3          5.7450    0.3460   -2.0100 n         1 MOL     -0.274501
     30 C10         4.5070    0.8020   -2.6870 c3        1 MOL     -0.195344
     31 C11         4.6930    2.2720   -3.1260 c         1 MOL      0.586200
     32 O6          5.6550    2.6050   -3.8820 o         1 MOL     -0.553271
     33 C12         4.1280   -0.1310   -3.7980 c3        1 MOL     -0.066624
     34 C13         3.9920   -1.5550   -3.2700 c         1 MOL      0.624784
     35 O7          4.8560   -2.3890   -3.5500 o         1 MOL     -0.704440
     36 O8          2.9620   -1.7670   -2.5670 o         1 MOL     -0.704440
     37 H13         6.4080   -0.1030   -2.6140 hn        1 MOL      0.265962
     38 H14         3.7010    0.6850   -1.9600 h1        1 MOL      0.137000
     39 H15         4.8660   -0.0420   -4.5990 hc        1 MOL      0.035414
     40 H16         3.1680    0.1800   -4.2050 hc        1 MOL      0.035414
     41 N4          3.8500    3.1760   -2.5920 n         1 MOL     -0.398503
     42 C14         3.8300    4.5920   -2.9990 c3        1 MOL     -0.053483
     43 C15         2.3870    5.1560   -3.1920 c         1 MOL      0.401732
     44 O9          2.3270    6.3950   -3.1430 o         1 MOL     -0.553044
     45 H17         3.1240    2.9130   -1.9460 hn        1 MOL      0.275348
     46 H18         4.3500    4.7630   -3.9450 h1        1 MOL      0.097686
     47 H19         4.4140    5.2330   -2.3290 h1        1 MOL      0.097686
     48 N5          1.3250    4.4140   -3.2650 n         1 MOL     -0.216636
     49 C16         0.0080    4.9390   -3.6690 c3        1 MOL     -0.014397
     50 C17        -0.7000    5.8970   -2.5550 c         1 MOL      0.473724
     51 O10        -1.4900    6.7070   -2.9930 o         1 MOL     -0.508708
     52 C18        -0.8520    3.6800   -3.8990 c3        1 MOL     -0.464152
     53 C19        -0.3180    2.8860   -5.0480 c         1 MOL      0.769151
     54 N6         -0.8460    3.0810   -6.2410 n         1 MOL     -0.810858
     55 O11         0.6170    2.0690   -4.9570 o         1 MOL     -0.550996
     56 H20         1.3260    3.4260   -3.0710 hn        1 MOL      0.212738
     57 H21         0.1270    5.4720   -4.6110 h1        1 MOL      0.132476
     58 H22        -1.8500    4.0260   -4.1490 hc        1 MOL      0.146066
     59 H23        -0.9110    3.1410   -2.9600 hc        1 MOL      0.146066
     60 H24        -1.5990    3.7410   -6.3620 hn        1 MOL      0.364713
     61 H25        -0.6930    2.3730   -6.9400 hn        1 MOL      0.364713
     62 N7         -0.2820    5.8440   -1.2860 n         1 MOL     -0.315647
     63 C20        -0.8450    6.4910   -0.1710 c3        1 MOL     -0.029575
     64 C21        -2.1470    5.8480    0.3550 c         1 MOL      0.309124
     65 O12        -2.8660    5.1090   -0.3500 o         1 MOL     -0.327386
     66 H26         0.3330    5.0810   -1.0520 hn        1 MOL      0.279669
     67 H27        -1.0790    7.5440   -0.3470 h1        1 MOL      0.077661
     68 H28        -0.1140    6.6240    0.6280 h1        1 MOL      0.077661
     69 N8         -2.4680    6.1050    1.6370 n         1 MOL     -0.168018
     70 C22        -3.7100    5.7760    2.2090 c3        1 MOL     -0.546400
     71 C23        -3.9250    4.3660    2.5360 c         1 MOL      0.473498
     72 O13        -5.0120    3.7830    2.3790 o         1 MOL     -0.508792
     73 C24        -4.0380    6.7800    3.3400 c3        1 MOL      0.627629
     74 C25        -3.5230    6.4670    4.7530 c3        1 MOL     -0.266087
     75 O14        -3.6160    8.0810    3.1740 oh        1 MOL     -0.657059
     76 H29        -1.8590    6.6430    2.2360 hn        1 MOL      0.207906
     77 H30        -4.4420    5.9560    1.4230 h1        1 MOL      0.233961
     78 H31        -5.1030    6.7970    3.5770 h1        1 MOL     -0.007297
     79 H32        -2.6980    8.1370    3.4620 ho        1 MOL      0.383644
     80 H33        -3.6360    7.3700    5.3650 hc        1 MOL      0.052049
     81 H34        -4.1310    5.6320    5.1120 hc        1 MOL      0.052049
     82 H35        -2.4730    6.2110    4.5900 hc        1 MOL      0.052049
     83 N9         -2.8930    3.6260    2.9900 n         1 MOL     -0.171935
     84 C26        -2.8610    2.1720    3.3190 c3        1 MOL     -0.043327
     85 C27        -2.0820    1.3780    2.2430 c         1 MOL      0.516874
     86 O15        -1.0920    1.8450    1.7330 o         1 MOL     -0.510399
     87 C28        -2.2140    1.9580    4.7250 c3        1 MOL      0.347931
     88 C29        -2.9520    2.7550    5.8070 c3        1 MOL     -0.146376
     89 C30        -2.2750    0.4150    5.0310 c3        1 MOL     -0.460594
     90 C31        -4.4640    2.7520    5.8380 c3        1 MOL      0.022786
     91 H36        -2.0220    4.1270    3.0660 hn        1 MOL      0.172531
     92 H37        -3.8980    1.8780    3.4770 h1        1 MOL      0.062911
     93 H38        -1.1770    2.2880    4.7020 hc        1 MOL     -0.030960
     94 H39        -2.5650    3.7610    5.6710 hc        1 MOL     -0.000814
     95 H40        -2.5430    2.2790    6.7010 hc        1 MOL     -0.000814
     96 H41        -1.4570   -0.0160    4.4540 hc        1 MOL      0.116134
     97 H42        -1.9810    0.2540    6.0720 hc        1 MOL      0.116134
     98 H43        -3.2210   -0.0500    4.7600 hc        1 MOL      0.116134
     99 H44        -4.8320    3.3080    4.9690 hc        1 MOL      0.000791
    100 H45        -5.0350    1.8290    5.7210 hc        1 MOL      0.000791
    101 H46        -4.8000    3.1850    6.7740 hc        1 MOL      0.000791
    102 N10        -2.6370    0.1600    1.9480 n         1 MOL     -0.571482
    103 C32        -2.0380   -0.8120    0.9240 c3        1 MOL      0.376943
    104 C33        -3.0010   -1.4530   -0.0820 c         1 MOL      0.198722
    105 O16        -2.8060   -2.4090   -0.7390 o         1 MOL     -0.298241
    106 C34        -1.2420   -1.9060    1.5470 c3        1 MOL     -0.026524
    107 C35        -0.0450   -2.2580    0.7110 c         1 MOL      0.591142
    108 O17         0.1300   -1.7760   -0.4320 o         1 MOL     -0.687815
    109 O18         0.8160   -3.0770    1.1600 o         1 MOL     -0.687815
    110 H47        -3.5390   -0.0410    2.3610 hn        1 MOL      0.279251
    111 H48        -1.3050   -0.2070    0.3760 h1        1 MOL      0.055192
    112 H49        -1.8140   -2.8040    1.7620 hc        1 MOL     -0.020328
    113 H50        -0.9510   -1.5620    2.5370 hc        1 MOL     -0.020328
    114 N11        -4.2120   -0.9510   -0.0950 n         1 MOL     -0.307346
    115 C36        -5.2030   -1.2190   -1.1570 c3        1 MOL      0.133375
    116 C37        -5.6680   -2.6640   -0.8960 c         1 MOL      0.275233
    117 O19        -6.2270   -2.9640    0.1730 o         1 MOL     -0.501911
    118 C38        -6.3340   -0.2050   -0.9990 c3        1 MOL     -0.181658
    119 C39        -5.8110    1.1880   -1.3900 ca        1 MOL      0.093411
    120 C40        -5.1510    1.3960   -2.6550 ca        1 MOL     -0.224647
    121 C41        -6.1340    2.2680   -0.5490 ca        1 MOL     -0.224647
    122 C42        -4.8500    2.6890   -2.9780 ca        1 MOL      0.034566
    123 C43        -5.7620    3.5520   -0.8620 ca        1 MOL      0.034566
    124 C44        -5.1250    3.8270   -2.1330 ca        1 MOL     -0.289677
    125 H51        -4.4530   -0.1830    0.5020 hn        1 MOL      0.209979
    126 H52        -4.7890   -1.1430   -2.1610 h1        1 MOL      0.074655
    127 H53        -6.7900   -0.2120    0.0010 hc        1 MOL      0.087313
    128 H54        -7.1190   -0.5020   -1.6950 hc        1 MOL      0.087313
    129 H55        -4.8800    0.5530   -3.2810 ha        1 MOL      0.121504
    130 H56        -6.7030    1.9670    0.3220 ha        1 MOL      0.121504
    131 H57        -4.4110    2.8690   -3.9490 ha        1 MOL      0.057805
    132 H58        -6.0140    4.3650   -0.1940 ha        1 MOL      0.057805
    133 H59        -4.9440    4.8490   -2.4070 ha        1 MOL      0.164624
    134 N12        -5.5590   -3.6050   -1.9100 n         1 MOL     -0.068750
    135 C45        -6.0040   -4.9890   -1.8130 c3        1 MOL      0.139984
    136 C46        -5.2750   -5.8080   -0.7560 c         1 MOL      0.269479
    137 O20        -5.7850   -6.7460   -0.2110 o         1 MOL     -0.515102
    138 C47        -5.8520   -5.6180   -3.1490 c3        1 MOL     -0.239028
    139 C48        -4.7380   -4.9100   -3.7660 c3        1 MOL      0.182025
    140 C49        -4.9350   -3.4140   -3.2510 c3        1 MOL     -0.333634
    141 H60        -7.0520   -5.0240   -1.5140 h1        1 MOL      0.039606
    142 H61        -5.7010   -6.7040   -3.1390 hc        1 MOL      0.077376
    143 H62        -6.6880   -5.3450   -3.7960 hc        1 MOL      0.077376
    144 H63        -3.8030   -5.3330   -3.3990 hc        1 MOL     -0.009547
    145 H64        -4.7300   -4.9990   -4.8490 hc        1 MOL     -0.009547
    146 H65        -3.9410   -2.9780   -3.1740 h1        1 MOL      0.113266
    147 H66        -5.5960   -2.9210   -3.9640 h1        1 MOL      0.113266
    148 N13        -4.0270   -5.4570   -0.4500 n         1 MOL     -0.002064
    149 C50        -3.2000   -6.1170    0.5880 c3        1 MOL     -0.449712
    150 C51        -3.6240   -5.8460    1.9740 c         1 MOL      0.564628
    151 O21        -3.2270   -6.6630    2.8280 o         1 MOL     -0.569316
    152 C52        -1.7430   -5.6530    0.3590 c3        1 MOL      0.292544
    153 C53        -0.9640   -6.4550   -0.7100 c3        1 MOL     -0.153755
    154 C54         0.3600   -5.7480   -0.9610 c         1 MOL      0.702625
    155 O22         0.3020   -4.6500   -1.5710 o         1 MOL     -0.768114
    156 O23         1.5020   -6.1310   -0.5700 o         1 MOL     -0.768114
    157 H67        -3.6170   -4.7490   -1.0320 hn        1 MOL      0.227585
    158 H68        -3.3470   -7.1830    0.4140 h1        1 MOL      0.181036
    159 H69        -1.1640   -5.8220    1.2730 hc        1 MOL     -0.007799
    160 H70        -1.6990   -4.6000    0.0910 hc        1 MOL     -0.007799
    161 H71        -1.5600   -6.4270   -1.6230 hc        1 MOL      0.002317
    162 H72        -0.8920   -7.4860   -0.3990 hc        1 MOL      0.002317
    163 N14        -4.4000   -4.8170    2.3270 n         1 MOL     -0.244311
    164 C55        -4.6890   -4.3420    3.7130 c3        1 MOL     -0.081402
    165 H73        -4.3250   -5.0760    4.4320 h1        1 MOL      0.058121
    166 H74        -4.1870   -3.3890    3.8840 h1        1 MOL      0.058121
    167 H75        -5.7640   -4.2140    3.8380 h1        1 MOL      0.058121
    168 H76        -4.6130   -4.1850    1.5570 hn        1 MOL      0.209900
    169 Ca1         2.5720   -3.4830   -0.7160 Ca        1 MOL      1.737923
    170 O24         3.5740   -4.6710   -2.8780 oh        1 MOL     -0.816241
    171 H77         4.0230   -3.9960   -3.3910 ho        1 MOL      0.397663
    172 H78         2.9520   -5.0650   -3.4910 ho        1 MOL      0.397663
    173 O25         3.4530   -1.1730    0.2670 oh        1 MOL     -0.816241
    174 H79         2.7500   -0.7710    0.7670 ho        1 MOL      0.397663
    175 H80         4.2550   -0.7610    0.5870 ho        1 MOL      0.397663
    176 O26         3.2000   -4.8770    1.5660 oh        1 MOL     -0.816241
    177 H81         2.5960   -5.5130    1.9370 ho        1 MOL      0.397663
    178 H82         4.0680   -5.2080    1.7790 ho        1 MOL      0.397663
    179 O27         5.2120   -3.8700   -0.4190 oh        1 MOL     -0.816241
    180 H83         5.8080   -3.9770   -1.1700 ho        1 MOL      0.397663
    181 H84         5.6740   -3.2860    0.1720 ho        1 MOL      0.397663
@<TRIPOS>BOND
     1    1    2 1   
     2    1    4 1   
     3    1    5 1   
     4    1    6 1   
     5    2    3 2   
     6    2    7 1   
     7    7    8 1   
     8    7   15 1   
     9    8    9 1   
    10    8   11 1   
    11    8   16 1   
    12    9   10 2   
    13    9   19 1   
    14   11   12 1   
    15   11   17 1   
    16   11   18 1   
    17   12   13 1   
    18   12   14 1   
    19   19   20 1   
    20   19   24 1   
    21   20   21 1   
    22   20   23 1   
    23   20   25 1   
    24   21   22 2   
    25   21   29 1   
    26   23   26 1   
    27   23   27 1   
    28   23   28 1   
    29   29   30 1   
    30   29   37 1   
    31   30   31 1   
    32   30   33 1   
    33   30   38 1   
    34   31   32 2   
    35   31   41 1   
    36   33   34 1   
    37   33   39 1   
    38   33   40 1   
    39   34   35 1   
    40   34   36 1   
    41   41   42 1   
    42   41   45 1   
    43   42   43 1   
    44   42   46 1   
    45   42   47 1   
    46   43   44 2   
    47   43   48 1   
    48   48   49 1   
    49   48   56 1   
    50   49   50 1   
    51   49   52 1   
    52   49   57 1   
    53   50   51 2   
    54   50   62 1   
    55   52   53 1   
    56   52   58 1   
    57   52   59 1   
    58   53   54 1   
    59   53   55 2   
    60   54   60 1   
    61   54   61 1   
    62   62   63 1   
    63   62   66 1   
    64   63   64 1   
    65   63   67 1   
    66   63   68 1   
    67   64   65 2   
    68   64   69 1   
    69   69   70 1   
    70   69   76 1   
    71   70   71 1   
    72   70   73 1   
    73   70   77 1   
    74   71   72 2   
    75   71   83 1   
    76   73   74 1   
    77   73   75 1   
    78   73   78 1   
    79   74   80 1   
    80   74   81 1   
    81   74   82 1   
    82   75   79 1   
    83   83   84 1   
    84   83   91 1   
    85   84   85 1   
    86   84   87 1   
    87   84   92 1   
    88   85   86 2   
    89   85  102 1   
    90   87   88 1   
    91   87   89 1   
    92   87   93 1   
    93   88   90 1   
    94   88   94 1   
    95   88   95 1   
    96   89   96 1   
    97   89   97 1   
    98   89   98 1   
    99   90   99 1   
   100   90  100 1   
   101   90  101 1   
   102  102  103 1   
   103  102  110 1   
   104  103  104 1   
   105  103  106 1   
   106  103  111 1   
   107  104  105 2   
   108  104  114 1   
   109  106  107 1   
   110  106  112 1   
   111  106  113 1   
   112  107  108 1   
   113  107  109 1   
   114  114  115 1   
   115  114  125 1   
   116  115  116 1   
   117  115  118 1   
   118  115  126 1   
   119  116  117 2   
   120  116  134 1   
   121  118  119 1   
   122  118  127 1   
   123  118  128 1   
   124  119  120 ar  
   125  119  121 ar  
   126  120  122 ar  
   127  120  129 1   
   128  121  123 ar  
   129  121  130 1   
   130  122  124 ar  
   131  122  131 1   
   132  123  124 ar  
   133  123  132 1   
   134  124  133 1   
   135  134  135 1   
   136  134  140 1   
   137  135  136 1   
   138  135  138 1   
   139  135  141 1   
   140  136  137 2   
   141  136  148 1   
   142  138  139 1   
   143  138  142 1   
   144  138  143 1   
   145  139  140 1   
   146  139  144 1   
   147  139  145 1   
   148  140  146 1   
   149  140  147 1   
   150  148  149 1   
   151  148  157 1   
   152  149  150 1   
   153  149  152 1   
   154  149  158 1   
   155  150  151 2   
   156  150  163 1   
   157  152  153 1   
   158  152  159 1   
   159  152  160 1   
   160  153  154 1   
   161  153  161 1   
   162  153  162 1   
   163  154  155 1   
   164  154  156 1   
   165  163  164 1   
   166  163  168 1   
   167  164  165 1   
   168  164  166 1   
   169  164  167 1   
   170  170  171 1   
   171  170  172 1   
   172  173  174 1   
   173  173  175 1   
   174  176  177 1   
   175  176  178 1   
   176  179  180 1   
   177  179  181 1   
@<TRIPOS>SUBSTRUCTURE
     1 MOL         1 TEMP              0 ****  ****    0 ROOT
