@<TRIPOS>MOLECULE
MOL
  192   187     1     0     0
SMALL
resp


@<TRIPOS>ATOM
      1 C1         -9.9510    0.0910   -2.3060 c3        1 MOL     -0.407423
      2 C2         -8.8860    0.2660   -1.1280 c         1 MOL      0.711322
      3 O1         -7.6670    0.1540   -1.3720 o         1 MOL     -0.586909
      4 H1         -9.4400    0.1360   -3.2670 hc        1 MOL      0.104396
      5 H2        -10.4500   -0.8730   -2.2050 hc        1 MOL      0.104396
      6 H3        -10.6900    0.8910   -2.2510 hc        1 MOL      0.104396
      7 N1         -9.3020    0.5790    0.0800 n         1 MOL     -0.482867
      8 C3         -8.3950    0.6000    1.2530 c3        1 MOL      0.035486
      9 C4         -8.0550   -0.8510    1.7600 c         1 MOL      0.444094
     10 O2         -8.4550   -1.3600    2.8070 o         1 MOL     -0.492968
     11 C5         -8.8650    1.3940    2.3920 c3        1 MOL     -0.098738
     12 C6         -9.3360    2.7990    2.0080 c         1 MOL      0.659522
     13 O3        -10.3440    3.1930    2.6320 o         1 MOL     -0.645838
     14 O4         -8.7910    3.3870    1.0530 o         1 MOL     -0.645838
     15 H4        -10.3010    0.5940    0.2200 hn        1 MOL      0.321525
     16 H5         -7.4710    1.0290    0.8560 h1        1 MOL      0.116642
     17 H6         -8.1070    1.5240    3.1570 hc        1 MOL      0.036290
     18 H7         -9.6320    0.8150    2.9190 hc        1 MOL      0.036290
     19 N2         -7.2930   -1.4470    0.8060 n         1 MOL     -0.113857
     20 C7         -6.8520   -2.8410    0.7870 c3        1 MOL      0.013335
     21 C8         -5.4090   -2.9080    1.4530 c         1 MOL      0.579419
     22 O5         -5.1380   -3.6400    2.4300 o         1 MOL     -0.563035
     23 C9         -6.9060   -3.3050   -0.6710 c3        1 MOL     -0.373566
     24 C10        -7.9140   -4.4550   -0.8850 c3        1 MOL      0.306229
     25 C11        -7.8140   -4.8430   -2.3740 c3        1 MOL     -0.105944
     26 C12        -8.8950   -5.7220   -2.9850 c3        1 MOL      0.022673
     27 N3         -8.9110   -7.1200   -2.4800 n4        1 MOL     -0.176222
     28 H8         -7.2350   -0.8740   -0.0170 hn        1 MOL     -0.098258
     29 H9         -7.5310   -3.4650    1.3640 h1        1 MOL      0.033970
     30 H10        -5.8840   -3.5950   -0.9340 hc        1 MOL      0.129598
     31 H11        -7.1980   -2.4970   -1.3380 hc        1 MOL      0.129598
     32 H12        -8.9650   -4.2570   -0.6450 hc        1 MOL     -0.035407
     33 H13        -7.6560   -5.3470   -0.3070 hc        1 MOL     -0.035407
     34 H14        -6.8410   -5.3280   -2.4540 hc        1 MOL      0.041788
     35 H15        -7.7640   -3.9030   -2.9130 hc        1 MOL      0.041788
     36 H16        -8.8280   -5.7930   -4.0730 hx        1 MOL      0.066375
     37 H17        -9.8760   -5.2980   -2.7630 hx        1 MOL      0.066375
     38 H18        -9.0550   -7.1490   -1.4800 hn        1 MOL      0.222862
     39 H19        -9.6650   -7.6960   -2.8280 hn        1 MOL      0.222862
     40 H20        -8.1510   -7.6770   -2.8450 hn        1 MOL      0.222862
     41 N4         -4.5320   -1.9610    1.1710 n         1 MOL     -0.435920
     42 C13        -4.4130   -1.1160   -0.0830 c3        1 MOL     -0.190656
     43 C14        -4.0320    0.3480    0.2480 c         1 MOL      0.543169
     44 O6         -3.9020    0.8130    1.4150 o         1 MOL     -0.512332
     45 C15        -3.3560   -1.8110   -0.9770 c3        1 MOL     -0.064431
     46 C16        -1.9560   -1.8410   -0.3290 c         1 MOL      0.666411
     47 O7         -1.1750   -0.8620   -0.5030 o         1 MOL     -0.655797
     48 O8         -1.6770   -2.8660    0.2740 o         1 MOL     -0.655797
     49 H21        -3.8700   -1.8540    1.9240 hn        1 MOL      0.345287
     50 H22        -5.3770   -1.2000   -0.5800 h1        1 MOL      0.197119
     51 H23        -3.2450   -1.2000   -1.8760 hc        1 MOL     -0.011939
     52 H24        -3.5850   -2.8270   -1.3040 hc        1 MOL     -0.011939
     53 N5         -3.8360    1.2050   -0.7950 n         1 MOL     -0.267716
     54 C17        -3.4650    2.6290   -0.6940 c3        1 MOL     -0.015603
     55 C18        -2.2220    2.9930    0.1180 c         1 MOL      0.210357
     56 O9         -1.2850    2.1690    0.2280 o         1 MOL     -0.236920
     57 H25        -3.9410    0.8110   -1.7140 hn        1 MOL      0.242165
     58 H26        -4.3990    3.1460   -0.4360 h1        1 MOL      0.077828
     59 H27        -3.1940    2.8630   -1.7240 h1        1 MOL      0.077828
     60 N6         -2.1480    4.1580    0.6780 n         1 MOL     -0.311982
     61 C19        -0.8830    4.8430    1.1070 c3        1 MOL      0.153094
     62 C20        -1.0850    6.4000    1.0720 c         1 MOL      0.348846
     63 O10        -2.2120    6.9330    1.2490 o         1 MOL     -0.502118
     64 C21        -0.5280    4.4640    2.5570 c3        1 MOL     -0.125116
     65 C22        -0.3990    2.9790    2.8750 c         1 MOL      0.664079
     66 O11        -1.2040    2.5050    3.7130 o         1 MOL     -0.639217
     67 O12         0.6610    2.3990    2.4670 o         1 MOL     -0.639217
     68 H28        -2.9590    4.7530    0.5720 hn        1 MOL      0.270225
     69 H29        -0.0990    4.4070    0.4890 h1        1 MOL      0.071478
     70 H30        -1.2490    4.8870    3.2540 hc        1 MOL      0.037891
     71 H31         0.4610    4.8140    2.8550 hc        1 MOL      0.037891
     72 N7         -0.0910    7.2730    0.9980 n         1 MOL     -0.281990
     73 C23         1.3650    7.0090    0.9760 c3        1 MOL     -0.260185
     74 C24         1.7730    6.2210   -0.2660 c         1 MOL      0.646055
     75 O13         1.2830    6.5110   -1.3570 o         1 MOL     -0.546433
     76 H32        -0.3610    8.2330    0.8640 hn        1 MOL      0.304586
     77 H33         1.6820    6.3550    1.8010 h1        1 MOL      0.123726
     78 H34         1.8770    7.9710    0.9420 h1        1 MOL      0.123726
     79 N8          2.6340    5.2040   -0.1560 n         1 MOL     -0.631801
     80 C25         3.0280    4.3160   -1.2780 c3        1 MOL      0.320486
     81 C26         1.9910    3.2490   -1.5280 c         1 MOL      0.252605
     82 O14         1.4960    2.6360   -0.5580 o         1 MOL     -0.537825
     83 C27         4.4240    3.6990   -1.0950 c3        1 MOL      0.117463
     84 C28         4.7610    2.4320   -1.8990 c3        1 MOL     -0.202149
     85 O15         4.6890    3.3390    0.2700 oh        1 MOL     -0.560134
     86 H35         2.9150    4.9670    0.7850 hn        1 MOL      0.329932
     87 H36         3.1150    4.9330   -2.1740 h1        1 MOL      0.018697
     88 H37         5.1050    4.5060   -1.3810 h1        1 MOL      0.035732
     89 H38         5.6280    3.4660    0.3620 ho        1 MOL      0.397864
     90 H39         4.7830    2.7830   -2.9240 hc        1 MOL      0.058804
     91 H40         5.7360    2.0910   -1.5620 hc        1 MOL      0.058804
     92 H41         3.9980    1.6450   -1.8430 hc        1 MOL      0.058804
     93 N9          1.7660    2.9350   -2.7790 n         1 MOL     -0.197229
     94 C29         1.1650    1.6790   -3.2820 c3        1 MOL     -0.033087
     95 C30         1.4810    0.2700   -2.6630 c         1 MOL      0.151827
     96 O16         1.5700    0.1410   -1.4470 o         1 MOL     -0.391743
     97 C31        -0.4040    1.9180   -3.1230 c3        1 MOL      0.466243
     98 C32        -0.8570    3.3810   -3.3150 c3        1 MOL     -0.324731
     99 C33        -1.2210    1.0530   -4.0810 c3        1 MOL     -0.539037
    100 C34        -0.4850    4.0170   -4.6420 c3        1 MOL     -0.398299
    101 H42         2.3740    3.4800   -3.3650 hn        1 MOL      0.241397
    102 H43         1.3810    1.6260   -4.3540 h1        1 MOL      0.037880
    103 H44        -0.7400    1.5800   -2.1410 hc        1 MOL     -0.179236
    104 H45        -0.4320    4.0240   -2.5410 hc        1 MOL      0.147573
    105 H46        -1.9440    3.4360   -3.3300 hc        1 MOL      0.147573
    106 H47        -1.0650    1.3540   -5.1200 hc        1 MOL      0.125556
    107 H48        -1.0460   -0.0000   -3.8840 hc        1 MOL      0.125556
    108 H49        -2.2600    1.3460   -3.9250 hc        1 MOL      0.125556
    109 H50        -1.0880    3.5870   -5.4370 hc        1 MOL      0.111858
    110 H51        -0.8040    5.0570   -4.6700 hc        1 MOL      0.111858
    111 H52         0.5960    4.0090   -4.8200 hc        1 MOL      0.111858
    112 N10         1.4820   -0.8030   -3.4400 n         1 MOL     -0.107971
    113 C35         1.5450   -2.1720   -2.8520 c3        1 MOL     -0.056168
    114 C36         3.0780   -2.3840   -2.3670 c         1 MOL      0.535787
    115 O17         3.4180   -3.2580   -1.5460 o         1 MOL     -0.503404
    116 C37         1.1180   -3.1200   -3.9240 c3        1 MOL      0.253710
    117 C38         1.1360   -4.6430   -3.5870 c3        1 MOL     -0.426537
    118 O18         1.8390   -2.9430   -5.1140 oh        1 MOL     -0.652235
    119 H53         1.3910   -0.7060   -4.4330 hn        1 MOL      0.250107
    120 H54         0.9320   -2.3400   -1.9740 h1        1 MOL      0.110762
    121 H55         0.1120   -2.8150   -4.1850 h1        1 MOL      0.045628
    122 H56         1.7960   -3.8410   -5.4430 ho        1 MOL      0.422586
    123 H57         2.1620   -4.8960   -3.3120 hc        1 MOL      0.124609
    124 H58         0.5720   -4.9480   -2.6990 hc        1 MOL      0.124609
    125 H59         0.9270   -5.2070   -4.4880 hc        1 MOL      0.124609
    126 N11         4.0840   -1.7130   -2.9530 n         1 MOL     -0.385230
    127 C39         5.5060   -1.6450   -2.6890 c3        1 MOL     -0.013792
    128 C40         5.7200   -1.4630   -1.1680 c         1 MOL      0.312859
    129 O19         5.1820   -0.5460   -0.6130 o         1 MOL     -0.365148
    130 C41         6.2490   -0.5810   -3.4320 c3        1 MOL      0.498905
    131 C42         7.8200   -0.5800   -3.1220 c3        1 MOL     -0.263883
    132 O20         6.1230   -0.8390   -4.8340 oh        1 MOL     -0.617471
    133 H60         3.7280   -1.0730   -3.6490 hn        1 MOL      0.176673
    134 H61         5.7940   -2.6020   -3.1410 h1        1 MOL      0.079658
    135 H62         5.8860    0.4150   -3.1900 h1        1 MOL     -0.072977
    136 H63         5.2210   -0.5520   -5.0080 ho        1 MOL      0.372508
    137 H64         8.2060    0.0920   -3.8930 hc        1 MOL      0.070901
    138 H65         8.0450    0.0200   -2.2400 hc        1 MOL      0.070901
    139 H66         8.1470   -1.6170   -3.0400 hc        1 MOL      0.070901
    140 N12         6.4580   -2.3730   -0.5670 n         1 MOL     -0.399228
    141 C43         6.9090   -2.5520    0.8590 c3        1 MOL      0.209506
    142 C44         5.8290   -2.0570    1.7780 c         1 MOL      0.529846
    143 O21         5.8530   -1.0110    2.4090 o         1 MOL     -0.519304
    144 C45         8.1870   -1.7530    1.0760 c3        1 MOL     -0.419549
    145 C46         9.3960   -1.9100    0.1220 c3        1 MOL      0.426660
    146 C47        10.7610   -1.4220    0.4670 c3        1 MOL     -0.248739
    147 C48        10.6830    0.1030    0.7070 c3        1 MOL      0.117022
    148 N13        12.1520    0.6230    0.9210 n4        1 MOL     -0.122478
    149 H67         6.8960   -3.0270   -1.2100 hn        1 MOL      0.253836
    150 H68         7.0760   -3.6010    1.0850 h1        1 MOL      0.044832
    151 H69         8.6030   -2.0650    2.0360 hc        1 MOL      0.113608
    152 H70         7.8430   -0.7190    1.0630 hc        1 MOL      0.113608
    153 H71         9.0770   -1.4830   -0.8320 hc        1 MOL     -0.081332
    154 H72         9.4670   -2.9650   -0.1340 hc        1 MOL     -0.081332
    155 H73        11.3640   -1.7280   -0.3860 hc        1 MOL      0.068986
    156 H74        10.9610   -2.0190    1.3550 hc        1 MOL      0.068986
    157 H75        10.0720    0.3750    1.5740 hx        1 MOL      0.052134
    158 H76        10.3870    0.5620   -0.2350 hx        1 MOL      0.052134
    159 H77        12.1750    1.6110    1.0910 hn        1 MOL      0.169858
    160 H78        12.6010    0.0560    1.6230 hn        1 MOL      0.169858
    161 H79        12.7210    0.4700    0.1090 hn        1 MOL      0.169858
    162 N14         4.7330   -2.7840    1.7360 n         1 MOL     -0.644112
    163 C49         3.4870   -2.4790    2.4640 c3        1 MOL      0.837270
    164 C50         2.1110   -2.7700    1.6560 c         1 MOL      0.250582
    165 O22         1.4540   -1.8410    1.2180 o         1 MOL     -0.519847
    166 C51         3.5410   -3.2600    3.7930 c3        1 MOL     -0.257307
    167 C52         4.4320   -2.5890    4.8250 c3        1 MOL     -0.298395
    168 C53         4.2020   -3.2430    6.2040 c         1 MOL      0.789151
    169 O23         3.2560   -2.9770    6.9240 o         1 MOL     -0.634325
    170 O24         5.1280   -3.9160    6.7510 o         1 MOL     -0.634325
    171 H80         4.6880   -3.5070    1.0310 hn        1 MOL      0.267463
    172 H81         3.4600   -1.3960    2.5650 h1        1 MOL     -0.084197
    173 H82         3.8620   -4.2760    3.5760 hc        1 MOL      0.051107
    174 H83         2.5210   -3.2710    4.1670 hc        1 MOL      0.051107
    175 H84         4.2130   -1.5370    5.0290 hc        1 MOL      0.070739
    176 H85         5.4600   -2.6520    4.4770 hc        1 MOL      0.070739
    177 N15         1.6300   -3.9890    1.4460 n         1 MOL     -0.291172
    178 C54         2.1220   -5.3170    1.6570 c3        1 MOL     -0.016426
    179 H86         2.3430   -5.4580    2.7150 h1        1 MOL      0.039667
    180 H87         1.3680   -6.0390    1.3450 h1        1 MOL      0.039667
    181 H88         3.0310   -5.4640    1.0750 h1        1 MOL      0.039667
    182 H89         0.8530   -3.8450    0.8130 hn        1 MOL      0.314825
    183 Ca1         0.5100    0.5190    0.7940 Ca        1 MOL      1.597099
    184 O25        -1.6410    0.1890    2.6110 oh        1 MOL     -0.861151
    185 H90        -1.5140    1.0180    3.0730 ho        1 MOL      0.404647
    186 H91        -2.5710    0.1840    2.3800 ho        1 MOL      0.404647
    187 O26         1.1170    0.0380    3.5030 oh        1 MOL     -0.861151
    188 H92         1.3680   -0.5750    4.1940 ho        1 MOL      0.404647
    189 H93         0.9670    0.8600    3.9580 ho        1 MOL      0.404647
    190 O27         3.3530    0.7130    0.8460 oh        1 MOL     -0.861151
    191 H94         4.0070    0.1940    0.3960 ho        1 MOL      0.404647
    192 H95         3.6940    1.6100    0.8180 ho        1 MOL      0.404647
@<TRIPOS>BOND
     1    1    2 1   
     2    1    4 1   
     3    1    5 1   
     4    1    6 1   
     5    2    3 2   
     6    2    7 1   
     7    7    8 1   
     8    7   15 1   
     9    8    9 1   
    10    8   11 1   
    11    8   16 1   
    12    9   10 2   
    13    9   19 1   
    14   11   12 1   
    15   11   17 1   
    16   11   18 1   
    17   12   13 1   
    18   12   14 1   
    19   19   20 1   
    20   19   28 1   
    21   20   21 1   
    22   20   23 1   
    23   20   29 1   
    24   21   22 2   
    25   21   41 1   
    26   23   24 1   
    27   23   30 1   
    28   23   31 1   
    29   24   25 1   
    30   24   32 1   
    31   24   33 1   
    32   25   26 1   
    33   25   34 1   
    34   25   35 1   
    35   26   27 1   
    36   26   36 1   
    37   26   37 1   
    38   27   38 1   
    39   27   39 1   
    40   27   40 1   
    41   41   42 1   
    42   41   49 1   
    43   42   43 1   
    44   42   45 1   
    45   42   50 1   
    46   43   44 2   
    47   43   53 1   
    48   45   46 1   
    49   45   51 1   
    50   45   52 1   
    51   46   47 1   
    52   46   48 1   
    53   53   54 1   
    54   53   57 1   
    55   54   55 1   
    56   54   58 1   
    57   54   59 1   
    58   55   56 2   
    59   55   60 1   
    60   60   61 1   
    61   60   68 1   
    62   61   62 1   
    63   61   64 1   
    64   61   69 1   
    65   62   63 2   
    66   62   72 1   
    67   64   65 1   
    68   64   70 1   
    69   64   71 1   
    70   65   66 1   
    71   65   67 1   
    72   72   73 1   
    73   72   76 1   
    74   73   74 1   
    75   73   77 1   
    76   73   78 1   
    77   74   75 2   
    78   74   79 1   
    79   79   80 1   
    80   79   86 1   
    81   80   81 1   
    82   80   83 1   
    83   80   87 1   
    84   81   82 2   
    85   81   93 1   
    86   83   84 1   
    87   83   85 1   
    88   83   88 1   
    89   84   90 1   
    90   84   91 1   
    91   84   92 1   
    92   85   89 1   
    93   93   94 1   
    94   93  101 1   
    95   94   95 1   
    96   94   97 1   
    97   94  102 1   
    98   95   96 2   
    99   95  112 1   
   100   97   98 1   
   101   97   99 1   
   102   97  103 1   
   103   98  100 1   
   104   98  104 1   
   105   98  105 1   
   106   99  106 1   
   107   99  107 1   
   108   99  108 1   
   109  100  109 1   
   110  100  110 1   
   111  100  111 1   
   112  112  113 1   
   113  112  119 1   
   114  113  114 1   
   115  113  116 1   
   116  113  120 1   
   117  114  115 2   
   118  114  126 1   
   119  116  117 1   
   120  116  118 1   
   121  116  121 1   
   122  117  123 1   
   123  117  124 1   
   124  117  125 1   
   125  118  122 1   
   126  126  127 1   
   127  126  133 1   
   128  127  128 1   
   129  127  130 1   
   130  127  134 1   
   131  128  129 2   
   132  128  140 1   
   133  130  131 1   
   134  130  132 1   
   135  130  135 1   
   136  131  137 1   
   137  131  138 1   
   138  131  139 1   
   139  132  136 1   
   140  140  141 1   
   141  140  149 1   
   142  141  142 1   
   143  141  144 1   
   144  141  150 1   
   145  142  143 2   
   146  142  162 1   
   147  144  145 1   
   148  144  151 1   
   149  144  152 1   
   150  145  146 1   
   151  145  153 1   
   152  145  154 1   
   153  146  147 1   
   154  146  155 1   
   155  146  156 1   
   156  147  148 1   
   157  147  157 1   
   158  147  158 1   
   159  148  159 1   
   160  148  160 1   
   161  148  161 1   
   162  162  163 1   
   163  162  171 1   
   164  163  164 1   
   165  163  166 1   
   166  163  172 1   
   167  164  165 2   
   168  164  177 1   
   169  166  167 1   
   170  166  173 1   
   171  166  174 1   
   172  167  168 1   
   173  167  175 1   
   174  167  176 1   
   175  168  169 1   
   176  168  170 1   
   177  177  178 1   
   178  177  182 1   
   179  178  179 1   
   180  178  180 1   
   181  178  181 1   
   182  184  185 1   
   183  184  186 1   
   184  187  188 1   
   185  187  189 1   
   186  190  191 1   
   187  190  192 1   
@<TRIPOS>SUBSTRUCTURE
     1 MOL         1 TEMP              0 ****  ****    0 ROOT
