@<TRIPOS>MOLECULE
MOL
  198   191     1     0     0
SMALL
resp


@<TRIPOS>ATOM
      1 C1         -4.4220   -3.0850    3.1880 c3        1 MOL     -0.129858
      2 C2         -3.2350   -3.0990    2.1610 c         1 MOL      0.580808
      3 O1         -2.7300   -2.0740    1.7040 o         1 MOL     -0.498140
      4 H1         -4.4010   -2.1530    3.7530 hc        1 MOL      0.019588
      5 H2         -5.3680   -3.1640    2.6510 hc        1 MOL      0.019588
      6 H3         -4.3210   -3.9270    3.8720 hc        1 MOL      0.019588
      7 N1         -2.8350   -4.2160    1.6420 n         1 MOL     -0.514995
      8 C3         -1.8470   -4.4160    0.5340 c3        1 MOL      0.410732
      9 C4         -0.4720   -3.9880    0.9460 c         1 MOL      0.432110
     10 O2          0.2430   -3.3830    0.1500 o         1 MOL     -0.440895
     11 C5         -2.4670   -3.7990   -0.7860 c3        1 MOL     -0.769853
     12 C6         -3.9790   -3.8560   -0.8850 c         1 MOL      1.171145
     13 O3         -4.6170   -2.8280   -1.1130 o         1 MOL     -0.903119
     14 O4         -4.5890   -4.9770   -0.6550 o         1 MOL     -0.903119
     15 H4         -3.4470   -4.9670    1.9520 hn        1 MOL      0.200898
     16 H5         -1.8300   -5.4830    0.3210 h1        1 MOL      0.057206
     17 H6         -2.0400   -4.3700   -1.6090 hc        1 MOL      0.185830
     18 H7         -2.1900   -2.7600   -0.9270 hc        1 MOL      0.185830
     19 N2          0.0150   -4.3370    2.1530 n         1 MOL     -0.567971
     20 C7          1.4200   -4.0630    2.5820 c3        1 MOL     -0.019811
     21 C8          2.3360   -5.2680    2.1640 c         1 MOL      0.602797
     22 O5          1.8410   -6.4470    2.1200 o         1 MOL     -0.593340
     23 C9          1.3230   -3.8080    4.0700 c3        1 MOL      0.029585
     24 C10         0.4140   -2.5360    4.3090 c3        1 MOL      0.029696
     25 C11         2.8140   -3.5690    4.6640 c3        1 MOL     -0.238044
     26 C12         0.1650   -2.1130    5.7590 c3        1 MOL     -0.236314
     27 H8         -0.4750   -4.8110    2.9000 hn        1 MOL      0.293739
     28 H9          1.6910   -3.1640    2.0270 h1        1 MOL      0.096696
     29 H10         0.9220   -4.6980    4.5340 hc        1 MOL      0.028934
     30 H11        -0.5990   -2.7460    3.9620 hc        1 MOL      0.071128
     31 H12         0.6820   -1.7050    3.6620 hc        1 MOL      0.071128
     32 H13         3.3940   -4.3820    4.2280 hc        1 MOL      0.064980
     33 H14         3.2580   -2.6140    4.3760 hc        1 MOL      0.064980
     34 H15         2.7280   -3.6670    5.7460 hc        1 MOL      0.064980
     35 H16         1.1280   -2.1500    6.2710 hc        1 MOL      0.053048
     36 H17        -0.2630   -1.1160    5.8290 hc        1 MOL      0.053048
     37 H18        -0.5220   -2.8400    6.1890 hc        1 MOL      0.053048
     38 N3          3.5500   -5.0610    1.5910 n         1 MOL     -0.437616
     39 C13         4.2250   -3.7430    1.4050 c3        1 MOL     -0.139557
     40 C14         4.1500   -3.3750   -0.0870 c         1 MOL      0.588157
     41 O6          4.2190   -2.2000   -0.4360 o         1 MOL     -0.557346
     42 C15         5.5750   -3.6780    2.0500 c3        1 MOL     -0.176760
     43 C16         6.4420   -4.8750    1.7460 c         1 MOL      0.761681
     44 O7          7.2810   -5.2190    2.6020 o         1 MOL     -0.731889
     45 O8          6.4030   -5.4040    0.6080 o         1 MOL     -0.731889
     46 H19         4.0340   -5.8270    1.1500 hn        1 MOL      0.275385
     47 H20         3.7290   -2.9250    1.9140 h1        1 MOL      0.124798
     48 H21         5.4860   -3.6390    3.1330 hc        1 MOL      0.065091
     49 H22         6.1400   -2.8190    1.6900 hc        1 MOL      0.065091
     50 N4          3.7450   -4.2490   -1.0330 n         1 MOL     -0.355956
     51 C17         3.4680   -3.9500   -2.4750 c3        1 MOL     -0.122657
     52 C18         4.4850   -3.3250   -3.3940 c         1 MOL      0.610268
     53 O9          5.0510   -4.0130   -4.2380 o         1 MOL     -0.595200
     54 H23         3.4580   -5.1360   -0.6450 hn        1 MOL      0.292557
     55 H24         2.6050   -3.2780   -2.4660 h1        1 MOL      0.068114
     56 H25         3.1230   -4.8960   -2.8880 h1        1 MOL      0.068114
     57 N5          4.6500   -2.0380   -3.2940 n         1 MOL     -0.399999
     58 C19         5.6770   -1.2900   -4.0290 c3        1 MOL     -0.010682
     59 C20         6.8090   -0.7820   -3.1050 c         1 MOL      0.357934
     60 O10         7.7570   -0.0810   -3.4690 o         1 MOL     -0.538752
     61 C21         5.0460   -0.0080   -4.6810 c3        1 MOL     -0.085915
     62 C22         4.3140    0.9830   -3.7630 c         1 MOL      0.692475
     63 O11         4.6690    1.2520   -2.5780 o         1 MOL     -0.671262
     64 O12         3.2820    1.4460   -4.2510 o         1 MOL     -0.671262
     65 H26         4.1090   -1.6800   -2.5250 hn        1 MOL      0.286412
     66 H27         5.9770   -1.8600   -4.9070 h1        1 MOL      0.113569
     67 H28         4.2650   -0.3240   -5.3760 hc        1 MOL      0.014674
     68 H29         5.7360    0.5140   -5.3480 hc        1 MOL      0.014674
     69 N6          6.7550   -1.2130   -1.8500 n         1 MOL     -0.073409
     70 C23         7.7630   -1.0500   -0.8340 c3        1 MOL     -0.331501
     71 C24         7.8920    0.3720   -0.2480 c         1 MOL      0.625324
     72 O13         8.5090    0.6190    0.7860 o         1 MOL     -0.617257
     73 H30         5.9400   -1.7410   -1.5690 hn        1 MOL      0.174471
     74 H31         8.7870   -1.1770   -1.2120 h1        1 MOL      0.128412
     75 H32         7.6270   -1.8730   -0.1370 h1        1 MOL      0.128412
     76 N7          7.2510    1.3060   -0.8960 n         1 MOL     -0.316632
     77 C25         7.3400    2.7740   -0.6780 c3        1 MOL      0.001126
     78 C26         6.8110    3.3660    0.6550 c         1 MOL      0.326061
     79 O14         6.9390    4.5870    0.9310 o         1 MOL     -0.520677
     80 C27         8.7710    3.2630   -1.0290 c3        1 MOL      0.157926
     81 C28         9.2590    2.6410   -2.3400 c3        1 MOL     -0.188346
     82 C29        10.6190    3.1830   -2.7300 c         1 MOL      0.653434
     83 N8         11.6920    2.6850   -2.2460 n         1 MOL     -0.784233
     84 O15        10.7200    4.1230   -3.4490 o         1 MOL     -0.600395
     85 H33         6.8310    1.0240   -1.7740 hn        1 MOL      0.188093
     86 H34         6.7530    3.2700   -1.4400 h1        1 MOL      0.125300
     87 H35         9.4720    3.1040   -0.2110 hc        1 MOL     -0.026003
     88 H36         8.6510    4.3310   -1.2190 hc        1 MOL     -0.026003
     89 H37         8.5650    2.7300   -3.1690 hc        1 MOL      0.067001
     90 H38         9.4270    1.5790   -2.2140 hc        1 MOL      0.067001
     91 H39        11.6050    1.8360   -1.7000 hn        1 MOL      0.349760
     92 H40        12.5580    3.1940   -2.3870 hn        1 MOL      0.349760
     93 N9          6.0790    2.5170    1.3610 n         1 MOL     -0.035739
     94 C30         5.4120    2.9500    2.6030 c3        1 MOL     -0.054249
     95 C31         3.9360    3.2170    2.3540 c         1 MOL      0.558014
     96 O16         3.3760    4.1410    2.9400 o         1 MOL     -0.564471
     97 C32         5.6120    1.9600    3.7530 c3        1 MOL      0.121411
     98 C33         5.1760    0.4260    3.5200 c3        1 MOL     -0.209249
     99 C34         7.0820    1.9040    4.1000 c3        1 MOL     -0.209249
    100 H41         5.9410    1.5790    1.0030 hn        1 MOL      0.172106
    101 H42         5.8310    3.9150    2.9050 h1        1 MOL      0.079131
    102 H43         5.2370    2.4360    4.6600 hc        1 MOL      0.003787
    103 H44         4.1080    0.2200    3.6230 hc        1 MOL      0.045671
    104 H45         5.5090    0.2000    2.5060 hc        1 MOL      0.045671
    105 H46         5.7490   -0.2590    4.1320 hc        1 MOL      0.045671
    106 H47         7.7150    1.6900    3.2450 hc        1 MOL      0.045671
    107 H48         7.4360    2.8770    4.4270 hc        1 MOL      0.045671
    108 H49         7.2300    1.2700    4.9760 hc        1 MOL      0.045671
    109 N10         3.3380    2.4250    1.4990 n         1 MOL     -0.469775
    110 C35         1.8250    2.2340    1.4770 c3        1 MOL      0.136501
    111 C36         1.0960    3.3570    0.7260 c         1 MOL      0.561345
    112 O17         1.7110    4.1580   -0.0240 o         1 MOL     -0.532267
    113 C37         1.4580    0.7970    0.9900 c3        1 MOL      0.090710
    114 C38         0.1430    0.3080    1.6570 c         1 MOL      0.475749
    115 N11        -0.4100   -0.7640    1.1000 n         1 MOL     -0.592025
    116 O18        -0.2980    0.8980    2.6290 o         1 MOL     -0.527651
    117 H50         3.9480    1.9290    0.8690 hn        1 MOL      0.204991
    118 H51         1.5270    2.1910    2.5280 h1        1 MOL      0.021476
    119 H52         2.2270    0.0490    1.1510 hc        1 MOL      0.011350
    120 H53         1.2990    0.9130   -0.0810 hc        1 MOL      0.011350
    121 H54         0.1330   -1.3140    0.4390 hn        1 MOL      0.276036
    122 H55        -1.3150   -1.1280    1.3720 hn        1 MOL      0.276036
    123 N12        -0.2040    3.4320    0.7920 n         1 MOL     -0.486298
    124 C39        -1.0510    4.2790   -0.0690 c3        1 MOL      0.165871
    125 C40        -2.4910    4.4300    0.4290 c         1 MOL      0.556312
    126 O19        -2.8740    3.7640    1.3910 o         1 MOL     -0.536225
    127 C41        -1.1160    3.5940   -1.5030 c3        1 MOL     -0.274353
    128 C42        -2.0570    2.5010   -1.7800 ca        1 MOL      0.342187
    129 C43        -2.2900    1.3760   -0.8760 ca        1 MOL     -0.309952
    130 C44        -2.5800    2.3710   -3.0770 ca        1 MOL     -0.309952
    131 C45        -3.0690    0.2800   -1.2160 ca        1 MOL     -0.142741
    132 C46        -3.4630    1.2880   -3.3490 ca        1 MOL     -0.142741
    133 C47        -3.6750    0.1680   -2.4620 ca        1 MOL      0.189170
    134 O20        -4.4630   -0.8740   -2.7750 oh        1 MOL     -0.637107
    135 H56        -0.7470    2.8320    1.4020 hn        1 MOL      0.238895
    136 H57        -0.6130    5.2760   -0.2040 h1        1 MOL      0.066529
    137 H58        -0.1470    3.1470   -1.7190 hc        1 MOL      0.081163
    138 H59        -1.2480    4.4450   -2.1710 hc        1 MOL      0.081163
    139 H60        -1.9300    1.4810    0.1300 ha        1 MOL      0.150225
    140 H61        -2.3550    3.0850   -3.8570 ha        1 MOL      0.150225
    141 H62        -3.1200   -0.5220   -0.4860 ha        1 MOL      0.121178
    142 H63        -3.9330    1.1810   -4.3200 ha        1 MOL      0.121178
    143 H64        -4.4830   -1.5790   -2.1170 ho        1 MOL      0.640921
    144 N13        -3.1760    5.3660   -0.1600 n         1 MOL     -0.599002
    145 C48        -4.6430    5.4530   -0.0920 c3        1 MOL      0.251481
    146 C49        -5.3860    5.0820   -1.4100 c         1 MOL      0.426476
    147 O21        -5.3080    5.8530   -2.2980 o         1 MOL     -0.552956
    148 C50        -5.0330    6.8770    0.3880 c3        1 MOL     -0.028300
    149 C51        -4.5350    7.1980    1.8000 c3        1 MOL     -0.146160
    150 C52        -5.1060    8.4550    2.4770 c         1 MOL      0.681459
    151 O22        -5.0300    9.5460    1.8140 o         1 MOL     -0.660981
    152 O23        -5.5940    8.3930    3.6410 o         1 MOL     -0.660981
    153 H65        -2.8830    5.8240   -1.0190 hn        1 MOL      0.327278
    154 H66        -5.0310    4.7540    0.6480 h1        1 MOL      0.094002
    155 H67        -6.1240    6.9390    0.3430 hc        1 MOL      0.017914
    156 H68        -4.6390    7.6190   -0.3100 hc        1 MOL      0.017914
    157 H69        -3.4540    7.3890    1.7780 hc        1 MOL      0.027802
    158 H70        -4.7280    6.3040    2.3950 hc        1 MOL      0.027802
    159 N14        -6.1210    3.9750   -1.5030 n         1 MOL     -0.404532
    160 C53        -6.1460    2.7800   -0.5770 c3        1 MOL     -0.100267
    161 C54        -6.8710    3.1400    0.7550 c         1 MOL      0.589189
    162 O24        -7.4980    4.1930    0.9620 o         1 MOL     -0.502806
    163 C55        -6.8590    1.6780   -1.2850 c3        1 MOL     -0.034396
    164 C56        -8.3760    1.7310   -1.7610 c3        1 MOL     -0.218322
    165 C57        -8.8730    0.4410   -2.5050 c         1 MOL      0.663199
    166 O25        -9.6580   -0.3120   -1.9070 o         1 MOL     -0.667713
    167 O26        -8.5310    0.3050   -3.7000 o         1 MOL     -0.667713
    168 H71        -6.4980    3.8550   -2.4310 hn        1 MOL      0.310764
    169 H72        -5.1240    2.5210   -0.3300 h1        1 MOL      0.012811
    170 H73        -6.6820    0.7880   -0.6740 hc        1 MOL      0.079019
    171 H74        -6.3340    1.4550   -2.2200 hc        1 MOL      0.079019
    172 H75        -8.4890    2.6190   -2.3840 hc        1 MOL      0.029696
    173 H76        -9.0020    1.7930   -0.8590 hc        1 MOL      0.029696
    174 N15        -6.7770    2.2310    1.7390 n         1 MOL     -0.432003
    175 C58        -7.0600    2.5190    3.1770 c3        1 MOL     -0.257834
    176 H77        -6.2260    3.0740    3.6080 h1        1 MOL      0.120530
    177 H78        -7.9700    3.1130    3.2570 h1        1 MOL      0.120530
    178 H79        -7.1880    1.5810    3.7180 h1        1 MOL      0.120530
    179 H80        -6.3730    1.3130    1.6030 hn        1 MOL      0.309005
    180 Ca1        -6.9960   -4.1780   -0.5990 Ca        1 MOL      1.794373
    181 O27        -9.4180   -4.1440    0.8670 oh        1 MOL     -0.867909
    182 H81        -9.8160   -4.6430    1.5840 ho        1 MOL      0.399201
    183 H82       -10.1540   -3.8470    0.3440 ho        1 MOL      0.399201
    184 O28        -6.2020   -4.5960   -3.1490 oh        1 MOL     -0.867909
    185 H83        -6.5850   -4.3540   -3.9930 ho        1 MOL      0.399201
    186 H84        -5.5170   -5.2200   -3.3670 ho        1 MOL      0.399201
    187 O29        -6.9130   -6.8490   -0.0040 oh        1 MOL     -0.867909
    188 H85        -7.3220   -7.5690    0.4750 ho        1 MOL      0.399201
    189 H86        -5.9910   -7.1040   -0.0750 ho        1 MOL      0.399201
    190 O30        -6.8110   -1.6840    0.2570 oh        1 MOL     -0.867909
    191 H87        -6.1860   -1.0270    0.5690 ho        1 MOL      0.399201
    192 H88        -7.6570   -1.4150    0.6110 ho        1 MOL      0.399201
    193 O31        -9.0660   -5.2710   -1.8600 oh        1 MOL     -0.867909
    194 H89        -9.0950   -6.2220   -1.8330 ho        1 MOL      0.399201
    195 H90        -9.4460   -5.0500   -2.7180 ho        1 MOL      0.399201
    196 O32        -8.4650   -2.6990   -2.3550 oh        1 MOL     -0.867909
    197 H91        -8.5900   -2.9600   -3.2610 ho        1 MOL      0.399201
    198 H92        -9.0780   -1.9790   -2.2140 ho        1 MOL      0.399201
@<TRIPOS>BOND
     1    1    2 1   
     2    1    4 1   
     3    1    5 1   
     4    1    6 1   
     5    2    3 2   
     6    2    7 1   
     7    7    8 1   
     8    7   15 1   
     9    8    9 1   
    10    8   11 1   
    11    8   16 1   
    12    9   10 2   
    13    9   19 1   
    14   11   12 1   
    15   11   17 1   
    16   11   18 1   
    17   12   13 1   
    18   12   14 1   
    19   19   20 1   
    20   19   27 1   
    21   20   21 1   
    22   20   23 1   
    23   20   28 1   
    24   21   22 2   
    25   21   38 1   
    26   23   24 1   
    27   23   25 1   
    28   23   29 1   
    29   24   26 1   
    30   24   30 1   
    31   24   31 1   
    32   25   32 1   
    33   25   33 1   
    34   25   34 1   
    35   26   35 1   
    36   26   36 1   
    37   26   37 1   
    38   38   39 1   
    39   38   46 1   
    40   39   40 1   
    41   39   42 1   
    42   39   47 1   
    43   40   41 2   
    44   40   50 1   
    45   42   43 1   
    46   42   48 1   
    47   42   49 1   
    48   43   44 1   
    49   43   45 1   
    50   50   51 1   
    51   50   54 1   
    52   51   52 1   
    53   51   55 1   
    54   51   56 1   
    55   52   53 2   
    56   52   57 1   
    57   57   58 1   
    58   57   65 1   
    59   58   59 1   
    60   58   61 1   
    61   58   66 1   
    62   59   60 2   
    63   59   69 1   
    64   61   62 1   
    65   61   67 1   
    66   61   68 1   
    67   62   63 1   
    68   62   64 1   
    69   69   70 1   
    70   69   73 1   
    71   70   71 1   
    72   70   74 1   
    73   70   75 1   
    74   71   72 2   
    75   71   76 1   
    76   76   77 1   
    77   76   85 1   
    78   77   78 1   
    79   77   80 1   
    80   77   86 1   
    81   78   79 2   
    82   78   93 1   
    83   80   81 1   
    84   80   87 1   
    85   80   88 1   
    86   81   82 1   
    87   81   89 1   
    88   81   90 1   
    89   82   83 1   
    90   82   84 2   
    91   83   91 1   
    92   83   92 1   
    93   93   94 1   
    94   93  100 1   
    95   94   95 1   
    96   94   97 1   
    97   94  101 1   
    98   95   96 2   
    99   95  109 1   
   100   97   98 1   
   101   97   99 1   
   102   97  102 1   
   103   98  103 1   
   104   98  104 1   
   105   98  105 1   
   106   99  106 1   
   107   99  107 1   
   108   99  108 1   
   109  109  110 1   
   110  109  117 1   
   111  110  111 1   
   112  110  113 1   
   113  110  118 1   
   114  111  112 2   
   115  111  123 1   
   116  113  114 1   
   117  113  119 1   
   118  113  120 1   
   119  114  115 1   
   120  114  116 2   
   121  115  121 1   
   122  115  122 1   
   123  123  124 1   
   124  123  135 1   
   125  124  125 1   
   126  124  127 1   
   127  124  136 1   
   128  125  126 2   
   129  125  144 1   
   130  127  128 1   
   131  127  137 1   
   132  127  138 1   
   133  128  129 ar  
   134  128  130 ar  
   135  129  131 ar  
   136  129  139 1   
   137  130  132 ar  
   138  130  140 1   
   139  131  133 ar  
   140  131  141 1   
   141  132  133 ar  
   142  132  142 1   
   143  133  134 1   
   144  134  143 1   
   145  144  145 1   
   146  144  153 1   
   147  145  146 1   
   148  145  148 1   
   149  145  154 1   
   150  146  147 2   
   151  146  159 1   
   152  148  149 1   
   153  148  155 1   
   154  148  156 1   
   155  149  150 1   
   156  149  157 1   
   157  149  158 1   
   158  150  151 1   
   159  150  152 1   
   160  159  160 1   
   161  159  168 1   
   162  160  161 1   
   163  160  163 1   
   164  160  169 1   
   165  161  162 2   
   166  161  174 1   
   167  163  164 1   
   168  163  170 1   
   169  163  171 1   
   170  164  165 1   
   171  164  172 1   
   172  164  173 1   
   173  165  166 1   
   174  165  167 1   
   175  174  175 1   
   176  174  179 1   
   177  175  176 1   
   178  175  177 1   
   179  175  178 1   
   180  181  182 1   
   181  181  183 1   
   182  184  185 1   
   183  184  186 1   
   184  187  188 1   
   185  187  189 1   
   186  190  191 1   
   187  190  192 1   
   188  193  194 1   
   189  193  195 1   
   190  196  197 1   
   191  196  198 1   
@<TRIPOS>SUBSTRUCTURE
     1 MOL         1 TEMP              0 ****  ****    0 ROOT
