@<TRIPOS>MOLECULE
MOL
  178   175     1     0     0
SMALL
resp


@<TRIPOS>ATOM
      1 C1        -11.2210   -6.6620   -0.4780 c3        1 MOL     -0.309369
      2 C2        -10.8660   -5.5600    0.5540 c         1 MOL      0.621852
      3 O1        -10.4540   -5.8240    1.6970 o         1 MOL     -0.603167
      4 H1        -11.2860   -7.6250    0.0280 hc        1 MOL      0.085391
      5 H2        -12.1790   -6.4300   -0.9420 hc        1 MOL      0.085391
      6 H3        -10.4470   -6.7070   -1.2440 hc        1 MOL      0.085391
      7 N1        -10.7690   -4.2910    0.2360 n         1 MOL     -0.532993
      8 C3        -10.9370   -3.7020   -1.0700 c3        1 MOL      0.155224
      9 C4        -11.6760   -2.3570   -1.0360 c         1 MOL      0.399690
     10 O2        -11.6240   -1.6280   -2.0460 o         1 MOL     -0.536335
     11 C5         -9.5690   -3.5090   -1.8070 c3        1 MOL     -0.344644
     12 C6         -8.5650   -2.6520   -1.0710 c         1 MOL      0.858496
     13 O3         -7.4810   -2.3350   -1.6410 o         1 MOL     -0.777862
     14 O4         -8.8150   -2.2190    0.0590 o         1 MOL     -0.777862
     15 H4        -10.5470   -3.6620    0.9980 hn        1 MOL      0.382448
     16 H5        -11.6460   -4.3240   -1.6100 h1        1 MOL      0.043841
     17 H6         -9.7650   -3.0990   -2.7990 hc        1 MOL      0.096352
     18 H7         -9.1670   -4.5160   -1.8660 hc        1 MOL      0.096352
     19 N2        -12.1610   -1.9020    0.0980 n         1 MOL     -0.371182
     20 C7        -12.9760   -0.7290    0.1750 c3        1 MOL      0.306243
     21 C8        -12.2410    0.5770    0.2320 c         1 MOL      0.352444
     22 O5        -12.8590    1.6180    0.3930 o         1 MOL     -0.552814
     23 C9        -14.0320   -1.0170    1.2390 c3        1 MOL     -0.239917
     24 H8        -11.9580   -2.4610    0.9100 hn        1 MOL      0.197852
     25 H9        -13.4750   -0.7370   -0.7920 h1        1 MOL      0.017203
     26 H10       -13.6180   -0.9670    2.2560 hc        1 MOL      0.064230
     27 H11       -14.8200   -0.2760    1.2180 hc        1 MOL      0.064230
     28 H12       -14.3740   -2.0500    1.1580 hc        1 MOL      0.064230
     29 N3        -10.9220    0.6230    0.1140 n         1 MOL     -0.235939
     30 C10       -10.1130    1.8930    0.2550 c3        1 MOL      0.055981
     31 C11        -8.8520    1.7690   -0.6510 c         1 MOL      0.367415
     32 O6         -8.3780    0.6520   -0.9750 o         1 MOL     -0.497162
     33 C12        -9.7810    2.1100    1.7690 c3        1 MOL     -0.195581
     34 C13        -8.9590    1.0220    2.4470 c         1 MOL      0.662878
     35 O7         -7.8700    0.6900    1.9460 o         1 MOL     -0.688805
     36 O8         -9.4940    0.3720    3.4020 o         1 MOL     -0.688805
     37 H13       -10.4980   -0.2330   -0.1930 hn        1 MOL      0.269070
     38 H14       -10.6240    2.7520   -0.1700 h1        1 MOL      0.057369
     39 H15       -10.7750    2.1640    2.2130 hc        1 MOL      0.049078
     40 H16        -9.2430    3.0530    1.7910 hc        1 MOL      0.049078
     41 N4         -8.2380    2.8770   -1.0310 n         1 MOL     -0.305507
     42 C14        -6.9850    2.8710   -1.8870 c3        1 MOL     -0.220376
     43 C15        -5.7750    2.2070   -1.2150 c         1 MOL      0.653330
     44 O9         -5.8520    1.6270   -0.1510 o         1 MOL     -0.581073
     45 H17        -8.7120    3.7600   -0.9090 hn        1 MOL      0.272771
     46 H18        -6.7670    3.8750   -2.2540 h1        1 MOL      0.124771
     47 H19        -7.2220    2.3130   -2.7970 h1        1 MOL      0.124771
     48 N5         -4.7190    2.3150   -1.9400 n         1 MOL     -0.506929
     49 C16        -3.4600    1.6580   -1.6540 c3        1 MOL      0.244456
     50 C17        -2.2810    2.6930   -1.7290 c         1 MOL      0.493953
     51 O10        -2.3330    3.6460   -2.5280 o         1 MOL     -0.543538
     52 C18        -3.1830    0.5720   -2.7390 c3        1 MOL     -0.355132
     53 C19        -4.2260   -0.5170   -2.7060 c         1 MOL      0.716834
     54 N6         -4.0920   -1.4000   -3.6850 n         1 MOL     -0.748193
     55 O11        -5.0100   -0.6520   -1.7920 o         1 MOL     -0.589610
     56 H20        -4.6910    2.8750   -2.7770 hn        1 MOL      0.278595
     57 H21        -3.4750    1.2940   -0.6310 h1        1 MOL     -0.004013
     58 H22        -2.2050    0.1410   -2.5050 hc        1 MOL      0.110654
     59 H23        -3.1920    0.9550   -3.7570 hc        1 MOL      0.110654
     60 H24        -3.4680   -1.2420   -4.4650 hn        1 MOL      0.367085
     61 H25        -4.7850   -2.1360   -3.6780 hn        1 MOL      0.367085
     62 N7         -1.2610    2.5760   -0.8920 n         1 MOL     -0.479025
     63 C20        -0.2900    3.6400   -0.6950 c3        1 MOL      0.098940
     64 C21        -0.3310    4.2910    0.7100 c         1 MOL      0.526678
     65 O12        -1.0970    3.8410    1.5750 o         1 MOL     -0.560956
     66 H26        -1.2680    1.7620   -0.2860 hn        1 MOL      0.326888
     67 H27        -0.4780    4.3740   -1.4770 h1        1 MOL      0.090363
     68 H28         0.7110    3.2130   -0.7200 h1        1 MOL      0.090363
     69 N8          0.4980    5.3300    0.9150 n         1 MOL     -0.375967
     70 C22         1.5190    5.9190   -0.0230 c3        1 MOL     -0.385799
     71 C23         2.8370    5.1800   -0.0070 c         1 MOL      0.540123
     72 O13         3.7050    5.5380   -0.7790 o         1 MOL     -0.544155
     73 C24         1.6820    7.4050    0.3080 c3        1 MOL      0.484824
     74 C25         0.4110    8.2770   -0.0790 c3        1 MOL     -0.347921
     75 O14         1.9650    7.5550    1.6800 oh        1 MOL     -0.594191
     76 H29         0.0990    5.8280    1.7040 hn        1 MOL      0.295109
     77 H30         1.1820    5.8030   -1.0610 h1        1 MOL      0.180082
     78 H31         2.4360    7.9770   -0.2440 h1        1 MOL      0.007113
     79 H32         2.6690    8.2070    1.7070 ho        1 MOL      0.387529
     80 H33         0.1190    8.1200   -1.1150 hc        1 MOL      0.079165
     81 H34        -0.4450    8.0210    0.5610 hc        1 MOL      0.079165
     82 H35         0.6620    9.3080    0.1790 hc        1 MOL      0.079165
     83 N9          3.1160    4.3330    0.9740 n         1 MOL     -0.409730
     84 C26         4.3040    3.4700    0.9790 c3        1 MOL      0.050862
     85 C27         4.0550    2.2480    0.0750 c         1 MOL      0.657980
     86 O15         2.8880    1.8410   -0.0890 o         1 MOL     -0.631791
     87 C28         4.8770    3.1410    2.3170 c3        1 MOL      0.068529
     88 C29         5.5450    4.3750    2.9240 c3        1 MOL      0.208445
     89 C30         5.8560    1.9760    2.4820 c3        1 MOL     -0.068656
     90 C31         6.0480    4.2880    4.3690 c3        1 MOL     -0.199674
     91 H36         2.3590    4.2710    1.6450 hn        1 MOL      0.274548
     92 H37         5.0800    4.0390    0.4740 h1        1 MOL      0.043723
     93 H38         4.0360    2.9730    2.9810 hc        1 MOL      0.018361
     94 H39         4.8530    5.2130    2.9530 hc        1 MOL     -0.077129
     95 H40         6.3810    4.6460    2.2820 hc        1 MOL     -0.077129
     96 H41         6.8130    2.1650    2.0080 hc        1 MOL      0.032110
     97 H42         5.9810    1.8070    3.5560 hc        1 MOL      0.032110
     98 H43         5.3370    1.1300    2.0170 hc        1 MOL      0.032110
     99 H44         5.2690    3.9510    5.0500 hc        1 MOL      0.034341
    100 H45         6.8630    3.5560    4.3650 hc        1 MOL      0.034341
    101 H46         6.3690    5.2450    4.7560 hc        1 MOL      0.034341
    102 N10         4.9070    1.6110   -0.6880 n         1 MOL     -0.438103
    103 C32         6.3440    1.9850   -0.9850 c3        1 MOL      0.095766
    104 C33         7.2060    0.7210   -0.9500 c         1 MOL      0.624218
    105 O16         6.6130   -0.3640   -1.1160 o         1 MOL     -0.521858
    106 C34         6.3720    2.6780   -2.4150 c3        1 MOL     -0.322768
    107 C35         5.7290    1.8020   -3.5140 c         1 MOL      0.779499
    108 O17         4.5060    1.9980   -3.7320 o         1 MOL     -0.738366
    109 O18         6.3900    1.0030   -4.1770 o         1 MOL     -0.738366
    110 H47         4.5910    0.8570   -1.2800 hn        1 MOL      0.333526
    111 H48         6.7690    2.7220   -0.2980 h1        1 MOL      0.027888
    112 H49         7.4080    2.8500   -2.7040 hc        1 MOL      0.045962
    113 H50         5.7640    3.5760   -2.3760 hc        1 MOL      0.045962
    114 N11         8.5250    0.8140   -0.8850 n         1 MOL     -0.638304
    115 C36         9.5260   -0.1540   -0.8580 c3        1 MOL      0.492291
    116 C37         9.6640   -0.6720    0.6080 c         1 MOL      0.112145
    117 O19         9.4700    0.1480    1.5080 o         1 MOL     -0.481966
    118 C38        10.8830    0.3900   -1.2980 c3        1 MOL     -0.223887
    119 C39        12.0470   -0.5880   -1.3600 ca        1 MOL      0.103176
    120 C40        12.2230   -1.2780   -2.5690 ca        1 MOL     -0.174422
    121 C41        12.8910   -0.9070   -0.2630 ca        1 MOL     -0.174422
    122 C42        13.3030   -2.1850   -2.7080 ca        1 MOL     -0.123808
    123 C43        13.9820   -1.7880   -0.4060 ca        1 MOL     -0.123808
    124 C44        14.1690   -2.4160   -1.6410 ca        1 MOL     -0.123242
    125 H51         8.8320    1.7520   -0.6850 hn        1 MOL      0.285175
    126 H52         9.3140   -0.9850   -1.5360 h1        1 MOL      0.005465
    127 H53        11.3360    1.2010   -0.7150 hc        1 MOL      0.066328
    128 H54        10.7420    0.7170   -2.3280 hc        1 MOL      0.066328
    129 H55        11.4590   -1.1580   -3.3270 ha        1 MOL      0.135398
    130 H56        12.6660   -0.4020    0.6680 ha        1 MOL      0.135398
    131 H57        13.3960   -2.7350   -3.6320 ha        1 MOL      0.114365
    132 H58        14.6010   -2.0050    0.4520 ha        1 MOL      0.114365
    133 H59        14.9740   -3.1200   -1.8110 ha        1 MOL      0.098236
    134 N12         9.8270   -1.9760    0.8330 n         1 MOL      0.066959
    135 C45         9.8730   -3.0980   -0.1320 c3        1 MOL     -0.015917
    136 C46         8.4490   -3.6660   -0.2890 c         1 MOL      0.505871
    137 O20         8.1600   -4.2270   -1.3280 o         1 MOL     -0.570954
    138 C47        10.8820   -4.1370    0.5060 c3        1 MOL     -0.016124
    139 C48        10.7360   -3.9400    2.0000 c3        1 MOL      0.034943
    140 C49        10.4630   -2.4190    2.0900 c3        1 MOL      0.070434
    141 H60        10.3130   -2.8570   -1.1020 h1        1 MOL      0.051113
    142 H61        10.6730   -5.1660    0.2220 hc        1 MOL      0.007979
    143 H62        11.9030   -3.8260    0.2910 hc        1 MOL      0.007979
    144 H63         9.8700   -4.4770    2.4020 hc        1 MOL     -0.010347
    145 H64        11.6230   -4.2050    2.5750 hc        1 MOL     -0.010347
    146 H65         9.8540   -2.1940    2.9590 h1        1 MOL      0.001480
    147 H66        11.4200   -1.9400    2.3120 h1        1 MOL      0.001480
    148 N13         7.5730   -3.5160    0.6950 n         1 MOL     -0.352238
    149 C50         6.2290   -4.2070    0.7480 c3        1 MOL      0.046497
    150 C51         6.4340   -5.6870    0.8780 c         1 MOL      0.460485
    151 O21         7.0100   -6.1740    1.8400 o         1 MOL     -0.584688
    152 C52         5.4690   -3.5130    1.8980 c3        1 MOL      0.123285
    153 C53         5.0130   -2.0210    1.6510 c3        1 MOL     -0.367206
    154 C54         4.3280   -1.4690    2.8390 c         1 MOL      0.775689
    155 O22         4.9190   -1.5420    3.9500 o         1 MOL     -0.742616
    156 O23         3.1750   -0.9610    2.8780 o         1 MOL     -0.742616
    157 H67         7.8200   -2.8830    1.4450 hn        1 MOL      0.277381
    158 H68         5.6470   -4.0110   -0.1540 h1        1 MOL      0.107167
    159 H69         6.0520   -3.4600    2.8230 hc        1 MOL     -0.015592
    160 H70         4.7040   -4.2560    2.1050 hc        1 MOL     -0.015592
    161 H71         4.4540   -2.0300    0.7240 hc        1 MOL      0.044938
    162 H72         5.7880   -1.2570    1.5240 hc        1 MOL      0.044938
    163 N14         6.0020   -6.5350   -0.0430 n         1 MOL     -0.292442
    164 C55         5.3910   -6.2360   -1.3210 c3        1 MOL     -0.110015
    165 H73         5.7350   -5.2610   -1.6680 h1        1 MOL      0.062951
    166 H74         5.6720   -6.9990   -2.0470 h1        1 MOL      0.062951
    167 H75         4.3070   -6.2200   -1.2110 h1        1 MOL      0.062951
    168 H76         6.1190   -7.5250    0.1350 hn        1 MOL      0.247586
    169 Ca1        -6.4830   -0.9300    0.4140 Ca        1 MOL      1.765558
    170 O24        -6.8690   -2.4090    2.6160 oh        1 MOL     -0.870832
    171 H77        -6.2710   -2.4310    3.3630 ho        1 MOL      0.431556
    172 H78        -7.5930   -2.9930    2.8710 ho        1 MOL      0.431556
    173 O25        -4.4080   -2.5640    0.3590 oh        1 MOL     -0.870832
    174 H79        -4.0440   -2.8560    1.1850 ho        1 MOL      0.431556
    175 H80        -3.6530   -2.2640   -0.1480 ho        1 MOL      0.431556
    176 O26        -4.7830    0.0000    2.3110 oh        1 MOL     -0.870832
    177 H81        -4.3090    0.8170    2.1560 ho        1 MOL      0.431556
    178 H82        -4.6990   -0.1450    3.2520 ho        1 MOL      0.431556
@<TRIPOS>BOND
     1    1    2 1   
     2    1    4 1   
     3    1    5 1   
     4    1    6 1   
     5    2    3 2   
     6    2    7 1   
     7    7    8 1   
     8    7   15 1   
     9    8    9 1   
    10    8   11 1   
    11    8   16 1   
    12    9   10 2   
    13    9   19 1   
    14   11   12 1   
    15   11   17 1   
    16   11   18 1   
    17   12   13 1   
    18   12   14 1   
    19   19   20 1   
    20   19   24 1   
    21   20   21 1   
    22   20   23 1   
    23   20   25 1   
    24   21   22 2   
    25   21   29 1   
    26   23   26 1   
    27   23   27 1   
    28   23   28 1   
    29   29   30 1   
    30   29   37 1   
    31   30   31 1   
    32   30   33 1   
    33   30   38 1   
    34   31   32 2   
    35   31   41 1   
    36   33   34 1   
    37   33   39 1   
    38   33   40 1   
    39   34   35 1   
    40   34   36 1   
    41   41   42 1   
    42   41   45 1   
    43   42   43 1   
    44   42   46 1   
    45   42   47 1   
    46   43   44 2   
    47   43   48 1   
    48   48   49 1   
    49   48   56 1   
    50   49   50 1   
    51   49   52 1   
    52   49   57 1   
    53   50   51 2   
    54   50   62 1   
    55   52   53 1   
    56   52   58 1   
    57   52   59 1   
    58   53   54 1   
    59   53   55 2   
    60   54   60 1   
    61   54   61 1   
    62   62   63 1   
    63   62   66 1   
    64   63   64 1   
    65   63   67 1   
    66   63   68 1   
    67   64   65 2   
    68   64   69 1   
    69   69   70 1   
    70   69   76 1   
    71   70   71 1   
    72   70   73 1   
    73   70   77 1   
    74   71   72 2   
    75   71   83 1   
    76   73   74 1   
    77   73   75 1   
    78   73   78 1   
    79   74   80 1   
    80   74   81 1   
    81   74   82 1   
    82   75   79 1   
    83   83   84 1   
    84   83   91 1   
    85   84   85 1   
    86   84   87 1   
    87   84   92 1   
    88   85   86 2   
    89   85  102 1   
    90   87   88 1   
    91   87   89 1   
    92   87   93 1   
    93   88   90 1   
    94   88   94 1   
    95   88   95 1   
    96   89   96 1   
    97   89   97 1   
    98   89   98 1   
    99   90   99 1   
   100   90  100 1   
   101   90  101 1   
   102  102  103 1   
   103  102  110 1   
   104  103  104 1   
   105  103  106 1   
   106  103  111 1   
   107  104  105 2   
   108  104  114 1   
   109  106  107 1   
   110  106  112 1   
   111  106  113 1   
   112  107  108 1   
   113  107  109 1   
   114  114  115 1   
   115  114  125 1   
   116  115  116 1   
   117  115  118 1   
   118  115  126 1   
   119  116  117 2   
   120  116  134 1   
   121  118  119 1   
   122  118  127 1   
   123  118  128 1   
   124  119  120 ar  
   125  119  121 ar  
   126  120  122 ar  
   127  120  129 1   
   128  121  123 ar  
   129  121  130 1   
   130  122  124 ar  
   131  122  131 1   
   132  123  124 ar  
   133  123  132 1   
   134  124  133 1   
   135  134  135 1   
   136  134  140 1   
   137  135  136 1   
   138  135  138 1   
   139  135  141 1   
   140  136  137 2   
   141  136  148 1   
   142  138  139 1   
   143  138  142 1   
   144  138  143 1   
   145  139  140 1   
   146  139  144 1   
   147  139  145 1   
   148  140  146 1   
   149  140  147 1   
   150  148  149 1   
   151  148  157 1   
   152  149  150 1   
   153  149  152 1   
   154  149  158 1   
   155  150  151 2   
   156  150  163 1   
   157  152  153 1   
   158  152  159 1   
   159  152  160 1   
   160  153  154 1   
   161  153  161 1   
   162  153  162 1   
   163  154  155 1   
   164  154  156 1   
   165  163  164 1   
   166  163  168 1   
   167  164  165 1   
   168  164  166 1   
   169  164  167 1   
   170  170  171 1   
   171  170  172 1   
   172  173  174 1   
   173  173  175 1   
   174  176  177 1   
   175  176  178 1   
@<TRIPOS>SUBSTRUCTURE
     1 MOL         1 TEMP              0 ****  ****    0 ROOT
