@<TRIPOS>MOLECULE
MOL
  181   177     1     0     0
SMALL
resp


@<TRIPOS>ATOM
      1 C1          1.5310    6.6100   -1.8480 c3        1 MOL     -0.414213
      2 C2          2.9470    6.2390   -1.5960 c         1 MOL      0.779330
      3 O1          3.5230    6.6140   -0.6360 o         1 MOL     -0.609610
      4 H1          1.4920    7.4140   -2.5830 hc        1 MOL      0.098048
      5 H2          0.9900    5.7440   -2.2300 hc        1 MOL      0.098048
      6 H3          1.0720    6.9450   -0.9180 hc        1 MOL      0.098048
      7 N1          3.5320    5.4090   -2.4210 n         1 MOL     -0.655783
      8 C3          4.7790    4.7710   -2.0830 c3        1 MOL      0.273179
      9 C4          4.6750    3.9000   -0.8040 c         1 MOL      0.700859
     10 O2          3.9270    2.9100   -0.8020 o         1 MOL     -0.661097
     11 C5          5.1080    3.8330   -3.2580 c3        1 MOL     -0.321347
     12 C6          6.3940    3.1350   -2.8520 c         1 MOL      0.718707
     13 O3          6.4310    1.8280   -2.8570 o         1 MOL     -0.734434
     14 O4          7.4230    3.8160   -2.6010 o         1 MOL     -0.734434
     15 H4          3.0300    5.0370   -3.2120 hn        1 MOL      0.309509
     16 H5          5.5350    5.5450   -1.9830 h1        1 MOL      0.005525
     17 H6          5.2580    4.4000   -4.1780 hc        1 MOL      0.052341
     18 H7          4.3690    3.0530   -3.4360 hc        1 MOL      0.052341
     19 N2          5.3070    4.3500    0.2840 n         1 MOL     -0.626784
     20 C7          5.4130    3.5400    1.5350 c3        1 MOL      0.606030
     21 C8          4.1480    3.6220    2.4360 c         1 MOL      0.338188
     22 O5          3.5560    4.6810    2.5180 o         1 MOL     -0.540737
     23 C9          6.5920    4.0290    2.2950 c3        1 MOL     -0.501129
     24 H8          5.7700    5.2390    0.2430 hn        1 MOL      0.311871
     25 H9          5.6410    2.5180    1.2320 h1        1 MOL     -0.039226
     26 H10         6.4330    5.0940    2.4540 hc        1 MOL      0.112393
     27 H11         6.5520    3.5500    3.2650 hc        1 MOL      0.112393
     28 H12         7.4470    3.8930    1.6250 hc        1 MOL      0.112393
     29 N3          3.6740    2.5820    3.1670 n         1 MOL     -0.285894
     30 C10         4.4180    1.3600    3.4940 c3        1 MOL      0.102911
     31 C11         4.6030    0.4330    2.3160 c         1 MOL      0.278536
     32 O6          3.7750    0.2080    1.4200 o         1 MOL     -0.372636
     33 C12         3.7310    0.6620    4.6950 c3        1 MOL     -0.272237
     34 C13         2.2020    0.6140    4.7270 c         1 MOL      0.778643
     35 O7          1.6860    0.6570    5.8440 o         1 MOL     -0.693739
     36 O8          1.4940    0.5640    3.7090 o         1 MOL     -0.693739
     37 H13         2.8280    2.8550    3.6570 hn        1 MOL      0.257312
     38 H14         5.3920    1.6800    3.8670 h1        1 MOL      0.027386
     39 H15         4.0880    1.2280    5.5520 hc        1 MOL      0.039396
     40 H16         4.1460   -0.3410    4.6990 hc        1 MOL      0.039396
     41 N4          5.8020   -0.1840    2.3510 n         1 MOL     -0.372303
     42 C14         6.1700   -1.1930    1.3210 c3        1 MOL     -0.070683
     43 C15         6.5900   -0.6260   -0.0150 c         1 MOL      0.556305
     44 O9          6.8200    0.5800   -0.0980 o         1 MOL     -0.460457
     45 H17         6.5010    0.0980    3.0270 hn        1 MOL      0.285495
     46 H18         5.3220   -1.8300    1.0460 h1        1 MOL      0.071757
     47 H19         7.0490   -1.6880    1.7130 h1        1 MOL      0.071757
     48 N5          6.9010   -1.4430   -0.9790 n         1 MOL     -0.578967
     49 C16         6.7730   -2.8890   -1.0240 c3        1 MOL      0.378510
     50 C17         5.6660   -3.3970   -1.8830 c         1 MOL      0.551241
     51 O10         5.4630   -4.5650   -2.0130 o         1 MOL     -0.551074
     52 C18         8.0890   -3.5590   -1.4880 c3        1 MOL     -0.340611
     53 C19         9.4020   -3.1700   -0.7800 c         1 MOL      0.786627
     54 N6         10.5270   -3.3320   -1.4510 n         1 MOL     -0.858007
     55 O11         9.3980   -2.8300    0.3760 o         1 MOL     -0.562533
     56 H20         7.1910   -0.9860   -1.8280 hn        1 MOL      0.315190
     57 H21         6.6500   -3.2820   -0.0130 h1        1 MOL      0.005324
     58 H22         8.1860   -3.3210   -2.5490 hc        1 MOL      0.058699
     59 H23         7.9300   -4.6310   -1.3450 hc        1 MOL      0.058699
     60 H24        10.4600   -3.7270   -2.3760 hn        1 MOL      0.378067
     61 H25        11.4240   -3.0570   -1.0670 hn        1 MOL      0.378067
     62 N7          4.8420   -2.4690   -2.3990 n         1 MOL     -0.481715
     63 C20         3.7460   -2.7730   -3.3410 c3        1 MOL     -0.129749
     64 C21         2.4850   -3.4280   -2.7540 c         1 MOL      0.579997
     65 O12         1.3810   -3.3440   -3.2950 o         1 MOL     -0.585271
     66 H26         5.0770   -1.4940   -2.2270 hn        1 MOL      0.320869
     67 H27         4.0390   -3.4590   -4.1370 h1        1 MOL      0.116257
     68 H28         3.4240   -1.8660   -3.8670 h1        1 MOL      0.116257
     69 N8          2.6430   -3.9810   -1.5240 n         1 MOL     -0.304650
     70 C22         1.5850   -4.5560   -0.6990 c3        1 MOL     -0.222899
     71 C23         0.3690   -3.6430   -0.4520 c         1 MOL      0.536580
     72 O13         0.5200   -2.5990    0.3040 o         1 MOL     -0.528873
     73 C24         2.1400   -5.1350    0.5450 c3        1 MOL      0.346049
     74 C25         2.7320   -6.4870    0.2940 c3        1 MOL     -0.305924
     75 O14         3.0160   -4.3380    1.2820 oh        1 MOL     -0.603671
     76 H29         3.6020   -4.1860   -1.2670 hn        1 MOL      0.221930
     77 H30         1.0550   -5.3810   -1.1690 h1        1 MOL      0.099636
     78 H31         1.2930   -5.3710    1.1910 h1        1 MOL      0.019861
     79 H32         2.5190   -3.5960    1.6240 ho        1 MOL      0.382775
     80 H33         2.1530   -6.9960   -0.4730 hc        1 MOL      0.083194
     81 H34         3.7950   -6.5310    0.0350 hc        1 MOL      0.083194
     82 H35         2.6490   -7.1000    1.1820 hc        1 MOL      0.083194
     83 N9         -0.7920   -4.0330   -0.9940 n         1 MOL     -0.342217
     84 C26        -2.0540   -3.3340   -0.9790 c3        1 MOL     -0.063813
     85 C27        -2.8420   -3.6030    0.3100 c         1 MOL      0.376917
     86 O15        -3.0460   -4.7460    0.7180 o         1 MOL     -0.556302
     87 C28        -2.9330   -3.7310   -2.1920 c3        1 MOL      0.108468
     88 C29        -4.2300   -2.7940   -2.2500 c3        1 MOL      0.092023
     89 C30        -2.1720   -3.6370   -3.5720 c3        1 MOL     -0.352029
     90 C31        -5.0510   -2.8340   -3.5620 c3        1 MOL     -0.303704
     91 H36        -0.7910   -4.9220   -1.4580 hn        1 MOL      0.265629
     92 H37        -1.8940   -2.2700   -1.1530 h1        1 MOL      0.239716
     93 H38        -3.2510   -4.7690   -2.0290 hc        1 MOL     -0.002359
     94 H39        -3.7940   -1.7950   -2.2430 hc        1 MOL      0.046641
     95 H40        -5.0440   -3.0590   -1.5770 hc        1 MOL      0.046641
     96 H41        -2.8860   -3.8950   -4.3550 hc        1 MOL      0.096908
     97 H42        -1.8710   -2.6120   -3.7730 hc        1 MOL      0.096908
     98 H43        -1.3380   -4.3320   -3.4910 hc        1 MOL      0.096908
     99 H44        -4.5540   -2.2790   -4.3600 hc        1 MOL      0.052044
    100 H45        -5.2630   -3.8730   -3.8450 hc        1 MOL      0.052044
    101 H46        -6.0260   -2.4120   -3.3410 hc        1 MOL      0.052044
    102 N10        -3.2990   -2.5430    0.9730 n         1 MOL     -0.054832
    103 C32        -4.0620   -2.6490    2.1710 c3        1 MOL     -0.057469
    104 C33        -5.3540   -1.7010    2.2860 c         1 MOL      0.392044
    105 O16        -6.1690   -1.8070    3.1830 o         1 MOL     -0.512323
    106 C34        -3.0970   -2.4540    3.3400 c3        1 MOL     -0.028083
    107 C35        -2.1490   -1.2460    3.2380 c         1 MOL      0.795712
    108 O17        -1.0540   -1.4020    2.7490 o         1 MOL     -0.730879
    109 O18        -2.4220   -0.1900    3.8100 o         1 MOL     -0.730879
    110 H47        -3.0520   -1.6320    0.6090 hn        1 MOL     -0.071222
    111 H48        -4.5060   -3.6400    2.2470 h1        1 MOL      0.116456
    112 H49        -2.5740   -3.4000    3.5280 hc        1 MOL     -0.001370
    113 H50        -3.6340   -2.2740    4.2650 hc        1 MOL     -0.001370
    114 N11        -5.6310   -0.9340    1.2250 n         1 MOL     -0.396771
    115 C36        -6.8430   -0.1230    1.0900 c3        1 MOL      0.583342
    116 C37        -6.6640    1.3420    0.6000 c         1 MOL      0.132731
    117 O19        -7.3040    1.7060   -0.3290 o         1 MOL     -0.489304
    118 C38        -7.7750   -0.9660    0.1660 c3        1 MOL     -0.310007
    119 C39        -9.3020   -0.8590    0.1850 ca        1 MOL      0.172181
    120 C40       -10.0600   -1.1680    1.3200 ca        1 MOL     -0.203342
    121 C41        -9.9610   -0.4290   -0.9780 ca        1 MOL     -0.203342
    122 C42       -11.4280   -1.0590    1.2900 ca        1 MOL     -0.051502
    123 C43       -11.3720   -0.4520   -0.9920 ca        1 MOL     -0.051502
    124 C44       -12.0880   -0.8070    0.0900 ca        1 MOL     -0.202264
    125 H51        -4.9470   -0.8030    0.5020 hn        1 MOL      0.093409
    126 H52        -7.2700   -0.1100    2.0940 h1        1 MOL     -0.040397
    127 H53        -7.7940   -2.0270    0.4040 hc        1 MOL      0.085457
    128 H54        -7.4510   -0.9590   -0.8800 hc        1 MOL      0.085457
    129 H55        -9.5650   -1.3830    2.2560 ha        1 MOL      0.123788
    130 H56        -9.4800   -0.2400   -1.9290 ha        1 MOL      0.123788
    131 H57       -11.9630   -1.1910    2.2220 ha        1 MOL      0.079859
    132 H58       -11.8980   -0.2610   -1.9150 ha        1 MOL      0.079859
    133 H59       -13.1620   -0.7930    0.0150 ha        1 MOL      0.104221
    134 N12        -5.6470    2.0110    1.1620 n         1 MOL      0.068541
    135 C45        -5.3400    3.4400    0.7160 c3        1 MOL     -0.028459
    136 C46        -4.8630    3.5160   -0.7480 c         1 MOL      0.210895
    137 O20        -4.9300    4.6070   -1.3480 o         1 MOL     -0.478995
    138 C47        -4.2220    3.9130    1.6390 c3        1 MOL     -0.116509
    139 C48        -4.3850    3.0000    2.8370 c3        1 MOL      0.020615
    140 C49        -4.9690    1.6400    2.3770 c3        1 MOL     -0.348982
    141 H60        -6.1850    4.1010    0.8950 h1        1 MOL      0.097270
    142 H61        -3.3040    3.6670    1.1080 hc        1 MOL      0.064607
    143 H62        -4.2330    4.9260    2.0580 hc        1 MOL      0.064607
    144 H63        -3.4930    2.8460    3.4490 hc        1 MOL      0.042769
    145 H64        -5.0450    3.5730    3.4890 hc        1 MOL      0.042769
    146 H65        -4.2150    0.8790    2.1680 h1        1 MOL      0.146477
    147 H66        -5.6420    1.2470    3.1350 h1        1 MOL      0.146477
    148 N13        -4.4700    2.3660   -1.3350 n         1 MOL      0.040564
    149 C50        -3.9290    2.3240   -2.6910 c3        1 MOL      0.011021
    150 C51        -5.0230    2.5990   -3.7570 c         1 MOL      0.260912
    151 O21        -5.0940    3.5710   -4.5010 o         1 MOL     -0.495054
    152 C52        -3.2990    1.0230   -2.9370 c3        1 MOL     -0.053346
    153 C53        -1.9960    0.7470   -2.2350 c3        1 MOL     -0.023681
    154 C54        -2.1020    0.3110   -0.8100 c         1 MOL      0.556534
    155 O22        -1.0890    0.1970   -0.1360 o         1 MOL     -0.667360
    156 O23        -3.2310    0.0370   -0.3310 o         1 MOL     -0.667360
    157 H67        -4.2970    1.5970   -0.7140 hn        1 MOL      0.237635
    158 H68        -3.1410    3.0680   -2.7910 h1        1 MOL      0.064150
    159 H69        -2.8960    1.0560   -3.9460 hc        1 MOL      0.001652
    160 H70        -4.0400    0.2400   -2.7800 hc        1 MOL      0.001652
    161 H71        -1.4520    1.6950   -2.2760 hc        1 MOL      0.024297
    162 H72        -1.3550    0.0120   -2.7180 hc        1 MOL      0.024297
    163 N14        -6.0590    1.8200   -3.5400 n         1 MOL     -0.036160
    164 C55        -7.3120    1.9670   -4.2130 c3        1 MOL     -0.172647
    165 H73        -7.2720    2.8360   -4.8690 h1        1 MOL      0.072367
    166 H74        -7.5130    1.0740   -4.8060 h1        1 MOL      0.072367
    167 H75        -8.1050    2.1020   -3.4790 h1        1 MOL      0.072367
    168 H76        -5.8460    0.9690   -3.0310 hn        1 MOL      0.171431
    169 Ca1         0.8290   -0.1550    1.4500 Ca        1 MOL      1.737928
    170 O24         2.2540   -2.1410    2.8380 oh        1 MOL     -0.879727
    171 H77         1.7150   -2.6360    3.4480 ho        1 MOL      0.430682
    172 H78         3.1500   -2.3500    3.0930 ho        1 MOL      0.430682
    173 O25        -1.5000    1.6570    2.1040 oh        1 MOL     -0.879727
    174 H79        -1.9850    1.3350    2.8570 ho        1 MOL      0.430682
    175 H80        -1.8730    1.1660    1.3580 ho        1 MOL      0.430682
    176 O26         1.5610    2.2200    1.0580 oh        1 MOL     -0.879727
    177 H81         2.3710    2.4170    0.5890 ho        1 MOL      0.430682
    178 H82         1.2860    3.0430    1.4500 ho        1 MOL      0.430682
    179 O27         1.5350   -0.0520   -1.1530 oh        1 MOL     -0.879727
    180 H83         0.9050    0.2560   -1.7990 ho        1 MOL      0.430682
    181 H84         2.3880    0.2030   -1.5080 ho        1 MOL      0.430682
@<TRIPOS>BOND
     1    1    2 1   
     2    1    4 1   
     3    1    5 1   
     4    1    6 1   
     5    2    3 2   
     6    2    7 1   
     7    7    8 1   
     8    7   15 1   
     9    8    9 1   
    10    8   11 1   
    11    8   16 1   
    12    9   10 2   
    13    9   19 1   
    14   11   12 1   
    15   11   17 1   
    16   11   18 1   
    17   12   13 1   
    18   12   14 1   
    19   19   20 1   
    20   19   24 1   
    21   20   21 1   
    22   20   23 1   
    23   20   25 1   
    24   21   22 2   
    25   21   29 1   
    26   23   26 1   
    27   23   27 1   
    28   23   28 1   
    29   29   30 1   
    30   29   37 1   
    31   30   31 1   
    32   30   33 1   
    33   30   38 1   
    34   31   32 2   
    35   31   41 1   
    36   33   34 1   
    37   33   39 1   
    38   33   40 1   
    39   34   35 1   
    40   34   36 1   
    41   41   42 1   
    42   41   45 1   
    43   42   43 1   
    44   42   46 1   
    45   42   47 1   
    46   43   44 2   
    47   43   48 1   
    48   48   49 1   
    49   48   56 1   
    50   49   50 1   
    51   49   52 1   
    52   49   57 1   
    53   50   51 2   
    54   50   62 1   
    55   52   53 1   
    56   52   58 1   
    57   52   59 1   
    58   53   54 1   
    59   53   55 2   
    60   54   60 1   
    61   54   61 1   
    62   62   63 1   
    63   62   66 1   
    64   63   64 1   
    65   63   67 1   
    66   63   68 1   
    67   64   65 2   
    68   64   69 1   
    69   69   70 1   
    70   69   76 1   
    71   70   71 1   
    72   70   73 1   
    73   70   77 1   
    74   71   72 2   
    75   71   83 1   
    76   73   74 1   
    77   73   75 1   
    78   73   78 1   
    79   74   80 1   
    80   74   81 1   
    81   74   82 1   
    82   75   79 1   
    83   83   84 1   
    84   83   91 1   
    85   84   85 1   
    86   84   87 1   
    87   84   92 1   
    88   85   86 2   
    89   85  102 1   
    90   87   88 1   
    91   87   89 1   
    92   87   93 1   
    93   88   90 1   
    94   88   94 1   
    95   88   95 1   
    96   89   96 1   
    97   89   97 1   
    98   89   98 1   
    99   90   99 1   
   100   90  100 1   
   101   90  101 1   
   102  102  103 1   
   103  102  110 1   
   104  103  104 1   
   105  103  106 1   
   106  103  111 1   
   107  104  105 2   
   108  104  114 1   
   109  106  107 1   
   110  106  112 1   
   111  106  113 1   
   112  107  108 1   
   113  107  109 1   
   114  114  115 1   
   115  114  125 1   
   116  115  116 1   
   117  115  118 1   
   118  115  126 1   
   119  116  117 2   
   120  116  134 1   
   121  118  119 1   
   122  118  127 1   
   123  118  128 1   
   124  119  120 ar  
   125  119  121 ar  
   126  120  122 ar  
   127  120  129 1   
   128  121  123 ar  
   129  121  130 1   
   130  122  124 ar  
   131  122  131 1   
   132  123  124 ar  
   133  123  132 1   
   134  124  133 1   
   135  134  135 1   
   136  134  140 1   
   137  135  136 1   
   138  135  138 1   
   139  135  141 1   
   140  136  137 2   
   141  136  148 1   
   142  138  139 1   
   143  138  142 1   
   144  138  143 1   
   145  139  140 1   
   146  139  144 1   
   147  139  145 1   
   148  140  146 1   
   149  140  147 1   
   150  148  149 1   
   151  148  157 1   
   152  149  150 1   
   153  149  152 1   
   154  149  158 1   
   155  150  151 2   
   156  150  163 1   
   157  152  153 1   
   158  152  159 1   
   159  152  160 1   
   160  153  154 1   
   161  153  161 1   
   162  153  162 1   
   163  154  155 1   
   164  154  156 1   
   165  163  164 1   
   166  163  168 1   
   167  164  165 1   
   168  164  166 1   
   169  164  167 1   
   170  170  171 1   
   171  170  172 1   
   172  173  174 1   
   173  173  175 1   
   174  176  177 1   
   175  176  178 1   
   176  179  180 1   
   177  179  181 1   
@<TRIPOS>SUBSTRUCTURE
     1 MOL         1 TEMP              0 ****  ****    0 ROOT
