@<TRIPOS>MOLECULE
MOL
  189   185     1     0     0
SMALL
resp


@<TRIPOS>ATOM
      1 C1          4.6790    4.2750   -3.6890 c3        1 MOL     -0.428834
      2 C2          5.3190    3.5700   -2.4880 c         1 MOL      0.812574
      3 O1          4.6770    3.1550   -1.5030 o         1 MOL     -0.686776
      4 H1          5.3960    4.9710   -4.1260 hc        1 MOL      0.107390
      5 H2          4.3920    3.5350   -4.4360 hc        1 MOL      0.107390
      6 H3          3.7950    4.8230   -3.3620 hc        1 MOL      0.107390
      7 N1          6.6310    3.2990   -2.6240 n         1 MOL     -0.649038
      8 C3          7.3230    2.1990   -1.9340 c3        1 MOL      0.332395
      9 C4          6.4790    0.9460   -1.6230 c         1 MOL      0.199077
     10 O2          6.1290    0.6200   -0.4960 o         1 MOL     -0.412644
     11 C5          8.1790    2.7130   -0.7690 c3        1 MOL     -0.048421
     12 C6          7.4120    3.7480    0.1330 c         1 MOL      0.734052
     13 O3          6.6760    3.2540    1.0250 o         1 MOL     -0.746299
     14 O4          7.5100    4.9760   -0.1630 o         1 MOL     -0.746299
     15 H4          7.1350    3.7060   -3.3960 hn        1 MOL      0.311750
     16 H5          8.1040    1.7850   -2.5730 h1        1 MOL     -0.006028
     17 H6          8.9770    3.2770   -1.2330 hc        1 MOL     -0.021584
     18 H7          8.5920    1.9290   -0.1230 hc        1 MOL     -0.021584
     19 N2          6.2080    0.1730   -2.7020 n         1 MOL     -0.301190
     20 C7          5.5110   -1.0670   -2.8220 c3        1 MOL      0.001279
     21 C8          6.1690   -2.2530   -2.0060 c         1 MOL      0.383941
     22 O5          6.3490   -3.3000   -2.6290 o         1 MOL     -0.571160
     23 C9          3.9380   -0.9120   -2.6060 c3        1 MOL      0.431459
     24 C10         3.2510   -2.2010   -3.0900 c3        1 MOL     -0.086495
     25 C11         3.2910    0.4150   -3.1820 c3        1 MOL     -0.250516
     26 C12         3.2040   -2.3860   -4.6280 c3        1 MOL     -0.091532
     27 H8          6.5920    0.5860   -3.5480 hn        1 MOL      0.202033
     28 H9          5.6190   -1.4130   -3.8570 h1        1 MOL      0.045310
     29 H10         3.9090   -0.8890   -1.5100 hc        1 MOL     -0.191807
     30 H11         2.2390   -1.9820   -2.7390 hc        1 MOL      0.053122
     31 H12         3.5340   -3.1540   -2.6310 hc        1 MOL      0.053122
     32 H13         3.3900    1.1550   -2.3900 hc        1 MOL      0.036801
     33 H14         3.7920    0.6940   -4.1010 hc        1 MOL      0.036801
     34 H15         2.2300    0.2580   -3.3650 hc        1 MOL      0.036801
     35 H16         4.0970   -2.8950   -4.9690 hc        1 MOL      0.002033
     36 H17         2.2670   -2.8740   -4.9110 hc        1 MOL      0.002033
     37 H18         3.2440   -1.4160   -5.1270 hc        1 MOL      0.002033
     38 N3          6.4930   -2.1720   -0.7020 n         1 MOL     -0.037849
     39 C13         7.1450   -3.2060    0.0620 c3        1 MOL     -0.038882
     40 C14         6.4020   -4.5690    0.0750 c         1 MOL      0.527196
     41 O6          7.0570   -5.6170    0.0760 o         1 MOL     -0.589836
     42 C15         7.5640   -2.6540    1.4490 c3        1 MOL     -0.145270
     43 C16         8.2040   -1.2110    1.4640 c         1 MOL      0.685797
     44 O7          8.9460   -0.9610    0.4430 o         1 MOL     -0.674775
     45 O8          8.0430   -0.4670    2.4850 o         1 MOL     -0.674775
     46 H19         6.2860   -1.2930   -0.2610 hn        1 MOL      0.151082
     47 H20         8.0880   -3.1920   -0.5030 h1        1 MOL      0.053133
     48 H21         8.3090   -3.3390    1.8460 hc        1 MOL      0.032301
     49 H22         6.7050   -2.6670    2.1150 hc        1 MOL      0.032301
     50 N4          5.0690   -4.6970    0.1290 n         1 MOL     -0.453692
     51 C17         4.0720   -3.6810    0.4430 c3        1 MOL      0.107976
     52 C18         2.9370   -4.3140    1.2590 c         1 MOL      0.454952
     53 O9          2.5000   -5.4700    0.9880 o         1 MOL     -0.525808
     54 H23         4.6890   -5.6220   -0.0470 hn        1 MOL      0.273394
     55 H24         3.7140   -3.2920   -0.5150 h1        1 MOL      0.079938
     56 H25         4.5720   -2.9650    1.0840 h1        1 MOL      0.079938
     57 N5          2.4740   -3.5960    2.3220 n         1 MOL     -0.571596
     58 C19         2.6530   -2.1520    2.6860 c3        1 MOL      0.277131
     59 C20         2.8070   -1.1570    1.4910 c         1 MOL      0.050973
     60 O10         3.7810   -0.5040    1.2860 o         1 MOL     -0.395537
     61 C21         3.7260   -2.0600    3.7580 c3        1 MOL     -0.247446
     62 C22         3.8140   -0.6600    4.4040 c         1 MOL      0.761501
     63 O11         4.8170   -0.4210    5.1270 o         1 MOL     -0.713766
     64 O12         2.9140    0.1100    4.2280 o         1 MOL     -0.713766
     65 H26         2.0370   -4.1600    3.0390 hn        1 MOL      0.313439
     66 H27         1.6980   -1.8500    3.1320 h1        1 MOL      0.055630
     67 H28         4.6820   -2.3010    3.2930 hc        1 MOL      0.045320
     68 H29         3.5090   -2.7930    4.5350 hc        1 MOL      0.045320
     69 N6          1.6960   -0.7720    0.8760 n         1 MOL     -0.084720
     70 C23         0.2750   -1.2360    0.9700 c3        1 MOL     -0.053835
     71 C24        -0.0520   -2.6240    0.3970 c         1 MOL      0.418024
     72 O13         0.7500   -3.2960   -0.2180 o         1 MOL     -0.465517
     73 H30         1.8400   -0.0460    0.1810 hn        1 MOL      0.142876
     74 H31        -0.3910   -0.5260    0.4880 h1        1 MOL      0.030439
     75 H32         0.0070   -1.2820    2.0260 h1        1 MOL      0.030439
     76 N7         -1.2920   -3.0170    0.5710 n         1 MOL     -0.247691
     77 C25        -1.8690   -4.2230    0.0350 c3        1 MOL     -0.002180
     78 C26        -2.4130   -4.1550   -1.3800 c         1 MOL      0.411218
     79 O14        -2.1010   -5.0090   -2.1960 o         1 MOL     -0.489988
     80 C27        -3.0110   -4.6430    1.0480 c3        1 MOL      0.073929
     81 C28        -2.7470   -4.4920    2.5440 c3        1 MOL     -0.136163
     82 C29        -1.6630   -5.4050    3.0570 c         1 MOL      0.696651
     83 N8         -0.7800   -5.0010    3.9100 n         1 MOL     -0.812652
     84 O15        -1.4910   -6.5070    2.6100 o         1 MOL     -0.580871
     85 H33        -1.8720   -2.4240    1.1370 hn        1 MOL      0.234340
     86 H34        -1.0810   -4.9710   -0.0150 h1        1 MOL      0.130944
     87 H35        -3.2360   -5.7020    0.8760 hc        1 MOL     -0.005857
     88 H36        -3.9070   -4.0940    0.7580 hc        1 MOL     -0.005857
     89 H37        -3.5890   -4.7590    3.1820 hc        1 MOL      0.019707
     90 H38        -2.4490   -3.4580    2.7020 hc        1 MOL      0.019707
     91 H39        -0.7260   -4.1070    4.3740 hn        1 MOL      0.372171
     92 H40        -0.1640   -5.7720    4.1070 hn        1 MOL      0.372171
     93 N9         -3.0450   -3.0110   -1.6680 n         1 MOL     -0.335757
     94 C30        -3.5730   -2.6020   -2.9750 c3        1 MOL     -0.037640
     95 C31        -4.9820   -1.9590   -2.9720 c         1 MOL      0.603367
     96 O16        -5.3720   -1.5590   -4.0540 o         1 MOL     -0.529918
     97 C32        -2.5210   -1.8580   -3.8690 c3        1 MOL      0.117510
     98 C33        -1.1380   -2.4350   -4.1860 c3        1 MOL     -0.255832
     99 C34        -2.2630   -0.4150   -3.4180 c3        1 MOL     -0.255832
    100 H41        -3.1430   -2.3690   -0.8980 hn        1 MOL      0.179784
    101 H42        -3.6790   -3.4850   -3.6090 h1        1 MOL      0.112312
    102 H43        -3.0330   -1.8760   -4.8210 hc        1 MOL      0.012479
    103 H44        -1.2610   -3.4680   -4.5240 hc        1 MOL      0.073896
    104 H45        -0.4710   -1.8570   -4.8250 hc        1 MOL      0.073896
    105 H46        -0.5900   -2.5810   -3.2560 hc        1 MOL      0.073896
    106 H47        -1.6790   -0.3410   -2.5060 hc        1 MOL      0.073896
    107 H48        -1.6020    0.1030   -4.1120 hc        1 MOL      0.073896
    108 H49        -3.1170    0.2530   -3.4690 hc        1 MOL      0.073896
    109 N10        -5.7330   -1.9460   -1.8530 n         1 MOL     -0.661319
    110 C35        -7.0900   -1.4300   -1.8070 c3        1 MOL      0.276959
    111 C36        -7.3740   -0.0550   -1.2010 c         1 MOL      0.622052
    112 O17        -8.3110    0.6180   -1.6560 o         1 MOL     -0.597416
    113 C37        -7.9340   -2.5500   -1.2590 c3        1 MOL     -0.400263
    114 C38        -7.8820   -3.9510   -1.8220 c         1 MOL      0.741428
    115 N11        -8.2120   -4.0500   -3.1220 n         1 MOL     -0.854774
    116 O18        -7.4930   -4.9160   -1.1650 o         1 MOL     -0.553148
    117 H50        -5.3960   -2.2960   -0.9650 hn        1 MOL      0.364772
    118 H51        -7.4920   -1.3120   -2.8160 h1        1 MOL      0.013484
    119 H52        -8.9770   -2.2090   -1.2770 hc        1 MOL      0.091910
    120 H53        -7.6500   -2.5710   -0.2110 hc        1 MOL      0.091910
    121 H54        -8.4990   -3.2050   -3.5950 hn        1 MOL      0.387884
    122 H55        -7.9920   -4.8670   -3.6820 hn        1 MOL      0.387884
    123 N12        -6.5240    0.3850   -0.3170 n         1 MOL     -0.557756
    124 C39        -6.6750    1.7480    0.2780 c3        1 MOL      0.320909
    125 C40        -5.2620    2.3750    0.3850 c         1 MOL      0.335399
    126 O19        -4.2140    1.6910    0.3990 o         1 MOL     -0.462787
    127 C41        -7.3040    1.6210    1.7020 c3        1 MOL     -0.136165
    128 C42        -8.5810    0.7870    1.6260 ca        1 MOL      0.031642
    129 C43        -9.7970    1.3880    1.1560 ca        1 MOL     -0.116245
    130 C44        -8.6570   -0.5060    2.1630 ca        1 MOL     -0.116245
    131 C45       -11.0190    0.6100    1.1480 ca        1 MOL     -0.305040
    132 C46        -9.8800   -1.1530    2.3100 ca        1 MOL     -0.305040
    133 C47       -11.0340   -0.7080    1.7130 ca        1 MOL      0.378130
    134 O20       -12.1960   -1.3140    1.9130 oh        1 MOL     -0.489357
    135 H56        -5.8240   -0.2360    0.0600 hn        1 MOL      0.295818
    136 H57        -7.3610    2.3780   -0.2810 h1        1 MOL      0.033886
    137 H58        -7.6040    2.5580    2.1840 hc        1 MOL      0.070618
    138 H59        -6.5820    1.1930    2.4020 hc        1 MOL      0.070618
    139 H60        -9.7210    2.4190    0.8430 ha        1 MOL      0.119614
    140 H61        -7.7510   -1.0010    2.4760 ha        1 MOL      0.119614
    141 H62       -11.9200    1.0090    0.7050 ha        1 MOL      0.147715
    142 H63        -9.9100   -2.1040    2.8200 ha        1 MOL      0.147715
    143 H64       -12.9240   -0.7550    1.6230 ho        1 MOL      0.358318
    144 N13        -5.3350    3.7110    0.6320 n         1 MOL     -0.637741
    145 C48        -4.3160    4.5870    1.2520 c3        1 MOL      0.400362
    146 C49        -3.1060    4.9600    0.3470 c         1 MOL      0.013695
    147 O21        -2.5620    6.0590    0.4110 o         1 MOL     -0.441682
    148 C50        -4.0550    4.0120    2.6510 c3        1 MOL     -0.227596
    149 C51        -2.9840    4.8750    3.3600 c3        1 MOL     -0.245824
    150 C52        -2.7400    4.5190    4.8320 c         1 MOL      0.718700
    151 O22        -2.3810    5.4020    5.6400 o         1 MOL     -0.733138
    152 O23        -2.9570    3.3310    5.2060 o         1 MOL     -0.733138
    153 H65        -6.2560    4.1080    0.6100 hn        1 MOL      0.309133
    154 H66        -4.8880    5.5050    1.4040 h1        1 MOL      0.029534
    155 H67        -3.8010    2.9500    2.6880 hc        1 MOL      0.089146
    156 H68        -4.9690    4.1090    3.2300 hc        1 MOL      0.089146
    157 H69        -3.2180    5.9360    3.2880 hc        1 MOL      0.076994
    158 H70        -1.9980    4.6930    2.9260 hc        1 MOL      0.076994
    159 N14        -2.6360    4.0460   -0.5220 n         1 MOL      0.127956
    160 C53        -1.5510    4.3970   -1.4840 c3        1 MOL     -0.135301
    161 C54        -2.0290    5.3810   -2.6100 c         1 MOL      0.431561
    162 O24        -1.2100    6.0370   -3.2560 o         1 MOL     -0.528436
    163 C55        -0.8450    3.1450   -1.9970 c3        1 MOL     -0.215679
    164 C56        -0.1780    2.2610   -0.9350 c3        1 MOL      0.224205
    165 C57         1.2380    2.7110   -0.4560 c         1 MOL      0.647169
    166 O25         2.0950    1.8130   -0.2370 o         1 MOL     -0.622200
    167 O26         1.5140    3.8810   -0.0840 o         1 MOL     -0.622200
    168 H71        -2.8930    3.0700   -0.5030 hn        1 MOL      0.129917
    169 H72        -0.7150    4.9230   -1.0310 h1        1 MOL      0.130257
    170 H73        -0.0030    3.4920   -2.6030 hc        1 MOL      0.039065
    171 H74        -1.4830    2.5560   -2.6560 hc        1 MOL      0.039065
    172 H75        -0.0860    1.2770   -1.4020 hc        1 MOL     -0.041982
    173 H76        -0.7990    2.1950   -0.0510 hc        1 MOL     -0.041982
    174 N15        -3.3260    5.4900   -2.8700 n         1 MOL     -0.133660
    175 C58        -3.9330    6.2510   -3.9210 c3        1 MOL     -0.114309
    176 H77        -3.2030    6.9470   -4.3330 h1        1 MOL      0.059110
    177 H78        -4.2760    5.5770   -4.7060 h1        1 MOL      0.059110
    178 H79        -4.7820    6.8080   -3.5230 h1        1 MOL      0.059110
    179 H80        -3.8530    4.7940   -2.3550 hn        1 MOL      0.137355
    180 Ca1         4.2630    2.1900    1.0300 Ca        1 MOL      1.807718
    181 O27         3.6870    4.7050    1.0660 oh        1 MOL     -0.930438
    182 H81         4.1910    5.4790    0.8060 ho        1 MOL      0.435687
    183 H82         2.8150    4.8510    0.6960 ho        1 MOL      0.435687
    184 O28         2.4570    2.3390    3.0290 oh        1 MOL     -0.930438
    185 H83         1.7580    2.8160    3.4900 ho        1 MOL      0.435687
    186 H84         2.6310    1.5860    3.5910 ho        1 MOL      0.435687
    187 O29         5.8530    1.1520    3.0630 oh        1 MOL     -0.930438
    188 H85         6.6040    0.6020    2.8490 ho        1 MOL      0.435687
    189 H86         5.7640    1.0770    4.0210 ho        1 MOL      0.435687
@<TRIPOS>BOND
     1    1    2 1   
     2    1    4 1   
     3    1    5 1   
     4    1    6 1   
     5    2    3 2   
     6    2    7 1   
     7    7    8 1   
     8    7   15 1   
     9    8    9 1   
    10    8   11 1   
    11    8   16 1   
    12    9   10 2   
    13    9   19 1   
    14   11   12 1   
    15   11   17 1   
    16   11   18 1   
    17   12   13 1   
    18   12   14 1   
    19   19   20 1   
    20   19   27 1   
    21   20   21 1   
    22   20   23 1   
    23   20   28 1   
    24   21   22 2   
    25   21   38 1   
    26   23   24 1   
    27   23   25 1   
    28   23   29 1   
    29   24   26 1   
    30   24   30 1   
    31   24   31 1   
    32   25   32 1   
    33   25   33 1   
    34   25   34 1   
    35   26   35 1   
    36   26   36 1   
    37   26   37 1   
    38   38   39 1   
    39   38   46 1   
    40   39   40 1   
    41   39   42 1   
    42   39   47 1   
    43   40   41 2   
    44   40   50 1   
    45   42   43 1   
    46   42   48 1   
    47   42   49 1   
    48   43   44 1   
    49   43   45 1   
    50   50   51 1   
    51   50   54 1   
    52   51   52 1   
    53   51   55 1   
    54   51   56 1   
    55   52   53 2   
    56   52   57 1   
    57   57   58 1   
    58   57   65 1   
    59   58   59 1   
    60   58   61 1   
    61   58   66 1   
    62   59   60 2   
    63   59   69 1   
    64   61   62 1   
    65   61   67 1   
    66   61   68 1   
    67   62   63 1   
    68   62   64 1   
    69   69   70 1   
    70   69   73 1   
    71   70   71 1   
    72   70   74 1   
    73   70   75 1   
    74   71   72 2   
    75   71   76 1   
    76   76   77 1   
    77   76   85 1   
    78   77   78 1   
    79   77   80 1   
    80   77   86 1   
    81   78   79 2   
    82   78   93 1   
    83   80   81 1   
    84   80   87 1   
    85   80   88 1   
    86   81   82 1   
    87   81   89 1   
    88   81   90 1   
    89   82   83 1   
    90   82   84 2   
    91   83   91 1   
    92   83   92 1   
    93   93   94 1   
    94   93  100 1   
    95   94   95 1   
    96   94   97 1   
    97   94  101 1   
    98   95   96 2   
    99   95  109 1   
   100   97   98 1   
   101   97   99 1   
   102   97  102 1   
   103   98  103 1   
   104   98  104 1   
   105   98  105 1   
   106   99  106 1   
   107   99  107 1   
   108   99  108 1   
   109  109  110 1   
   110  109  117 1   
   111  110  111 1   
   112  110  113 1   
   113  110  118 1   
   114  111  112 2   
   115  111  123 1   
   116  113  114 1   
   117  113  119 1   
   118  113  120 1   
   119  114  115 1   
   120  114  116 2   
   121  115  121 1   
   122  115  122 1   
   123  123  124 1   
   124  123  135 1   
   125  124  125 1   
   126  124  127 1   
   127  124  136 1   
   128  125  126 2   
   129  125  144 1   
   130  127  128 1   
   131  127  137 1   
   132  127  138 1   
   133  128  129 ar  
   134  128  130 ar  
   135  129  131 ar  
   136  129  139 1   
   137  130  132 ar  
   138  130  140 1   
   139  131  133 ar  
   140  131  141 1   
   141  132  133 ar  
   142  132  142 1   
   143  133  134 1   
   144  134  143 1   
   145  144  145 1   
   146  144  153 1   
   147  145  146 1   
   148  145  148 1   
   149  145  154 1   
   150  146  147 2   
   151  146  159 1   
   152  148  149 1   
   153  148  155 1   
   154  148  156 1   
   155  149  150 1   
   156  149  157 1   
   157  149  158 1   
   158  150  151 1   
   159  150  152 1   
   160  159  160 1   
   161  159  168 1   
   162  160  161 1   
   163  160  163 1   
   164  160  169 1   
   165  161  162 2   
   166  161  174 1   
   167  163  164 1   
   168  163  170 1   
   169  163  171 1   
   170  164  165 1   
   171  164  172 1   
   172  164  173 1   
   173  165  166 1   
   174  165  167 1   
   175  174  175 1   
   176  174  179 1   
   177  175  176 1   
   178  175  177 1   
   179  175  178 1   
   180  181  182 1   
   181  181  183 1   
   182  184  185 1   
   183  184  186 1   
   184  187  188 1   
   185  187  189 1   
@<TRIPOS>SUBSTRUCTURE
     1 MOL         1 TEMP              0 ****  ****    0 ROOT
