@<TRIPOS>MOLECULE
MOL
  182   178     1     0     0
SMALL
resp


@<TRIPOS>ATOM
      1 C1          0.0220   -3.2960    6.2400 c3        1 MOL     -0.440836
      2 C2          0.0840   -3.0470    4.6880 c         1 MOL      0.721081
      3 O1         -0.8900   -3.1770    3.9450 o         1 MOL     -0.577498
      4 H1          1.0070   -3.5930    6.5990 hc        1 MOL      0.123762
      5 H2         -0.2870   -2.3800    6.7440 hc        1 MOL      0.123762
      6 H3         -0.6960   -4.0880    6.4530 hc        1 MOL      0.123762
      7 N1          1.2950   -2.8540    4.1740 n         1 MOL     -0.515163
      8 C3          1.6680   -2.8130    2.7050 c3        1 MOL     -0.010765
      9 C4          1.5120   -4.0710    1.8680 c         1 MOL      0.717183
     10 O2          1.5930   -5.1430    2.4550 o         1 MOL     -0.575962
     11 C5          3.0300   -2.1080    2.6670 c3        1 MOL     -0.204859
     12 C6          3.2890   -1.4180    1.3540 c         1 MOL      0.589043
     13 O3          4.0270   -0.4200    1.2660 o         1 MOL     -0.693012
     14 O4          2.7540   -1.8940    0.2840 o         1 MOL     -0.693012
     15 H4          2.0190   -2.7550    4.8730 hn        1 MOL      0.297586
     16 H5          0.9510   -2.1080    2.2830 h1        1 MOL     -0.039430
     17 H6          3.8210   -2.8360    2.8690 hc        1 MOL      0.095698
     18 H7          3.0310   -1.3200    3.4210 hc        1 MOL      0.095698
     19 N2          1.3110   -4.0530    0.5290 n         1 MOL     -0.398853
     20 C7          1.4170   -5.2210   -0.4030 c3        1 MOL     -0.021809
     21 C8          2.7870   -5.3090   -1.1090 c         1 MOL      0.546929
     22 O5          3.1880   -6.4010   -1.5760 o         1 MOL     -0.571429
     23 C9          0.2070   -5.2300   -1.3860 c3        1 MOL     -0.114741
     24 C10        -0.8660   -6.2450   -1.0010 c3        1 MOL      0.160181
     25 C11        -1.9360   -6.0220   -2.0470 c3        1 MOL     -0.049936
     26 C12        -3.0690   -7.0250   -1.8890 c3        1 MOL      0.045072
     27 N3         -4.0350   -7.0610   -2.9870 n4        1 MOL     -0.226514
     28 H8          1.3740   -3.1780    0.0200 hn        1 MOL      0.247607
     29 H9          1.2490   -6.1310    0.1670 h1        1 MOL      0.088884
     30 H10         0.5320   -5.5460   -2.3800 hc        1 MOL      0.027639
     31 H11        -0.3250   -4.2840   -1.4590 hc        1 MOL      0.027639
     32 H12        -1.2600   -6.0210   -0.0060 hc        1 MOL     -0.002804
     33 H13        -0.5430   -7.2790   -0.9530 hc        1 MOL     -0.002804
     34 H14        -1.4220   -6.1670   -3.0000 hc        1 MOL      0.025042
     35 H15        -2.1930   -4.9560   -2.0560 hc        1 MOL      0.025042
     36 H16        -3.5780   -6.8000   -0.9500 hx        1 MOL      0.064846
     37 H17        -2.6270   -8.0140   -1.7830 hx        1 MOL      0.064846
     38 H18        -4.5750   -6.2040   -3.0110 hn        1 MOL      0.253387
     39 H19        -3.4870   -7.1060   -3.8350 hn        1 MOL      0.253387
     40 H20        -4.7680   -7.7520   -2.8880 hn        1 MOL      0.253387
     41 N4          3.5800   -4.2400   -1.0970 n         1 MOL     -0.387621
     42 C13         4.9260   -4.2390   -1.7820 c3        1 MOL      0.071834
     43 C14         6.0820   -3.7330   -0.9570 c         1 MOL      0.297751
     44 O6          7.1870   -3.7460   -1.3830 o         1 MOL     -0.454000
     45 C15         4.7860   -3.3260   -3.0640 c3        1 MOL     -0.281406
     46 C16         4.2180   -1.9490   -2.6670 c         1 MOL      0.996297
     47 O7          4.7910   -1.2730   -1.8410 o         1 MOL     -0.856823
     48 O8          3.1630   -1.5250   -3.2040 o         1 MOL     -0.856823
     49 H21         3.2750   -3.4080   -0.6260 hn        1 MOL      0.161782
     50 H22         5.1500   -5.2260   -2.1690 h1        1 MOL      0.143295
     51 H23         4.2430   -3.7660   -3.9020 hc        1 MOL      0.074319
     52 H24         5.8160   -3.1710   -3.4090 hc        1 MOL      0.074319
     53 N5          5.8800   -3.2180    0.2820 n         1 MOL      0.005150
     54 C17         6.8780   -2.8910    1.2570 c3        1 MOL     -0.349544
     55 C18         7.5720   -1.5390    1.0930 c         1 MOL      0.763133
     56 O9          8.4970   -1.2050    1.7780 o         1 MOL     -0.606075
     57 H25         4.9080   -3.2170    0.5570 hn        1 MOL      0.099874
     58 H26         7.6420   -3.6730    1.2090 h1        1 MOL      0.119178
     59 H27         6.4630   -2.7600    2.2530 h1        1 MOL      0.119178
     60 N6          7.0980   -0.7590    0.1590 n         1 MOL     -0.512340
     61 C19         7.6490    0.5470   -0.2270 c3        1 MOL      0.106967
     62 C20         6.5160    1.6580   -0.4260 c         1 MOL      0.520222
     63 O10         5.4520    1.4050   -0.8960 o         1 MOL     -0.426439
     64 C21         8.5180    0.3680   -1.5090 c3        1 MOL     -0.409254
     65 C22         9.6990   -0.5910   -1.3650 c         1 MOL      0.720851
     66 N7         10.8030   -0.1890   -0.7730 n         1 MOL     -0.783292
     67 O11         9.6970   -1.6820   -1.8330 o         1 MOL     -0.527149
     68 H28         6.2970   -1.0990   -0.3710 hn        1 MOL      0.455130
     69 H29         8.2090    0.8790    0.6470 h1        1 MOL      0.037143
     70 H30         8.8970    1.3340   -1.8090 hc        1 MOL      0.106502
     71 H31         7.8850   -0.1280   -2.2560 hc        1 MOL      0.106502
     72 H32        10.9220    0.7580   -0.4300 hn        1 MOL      0.352799
     73 H33        11.5810   -0.8260   -0.7410 hn        1 MOL      0.352799
     74 N8          6.7460    2.9510   -0.1050 n         1 MOL     -0.451628
     75 C23         5.8660    4.0960   -0.3810 c3        1 MOL     -0.160228
     76 C24         4.7030    4.3290    0.5530 c         1 MOL      0.708694
     77 O12         4.6850    4.0670    1.7230 o         1 MOL     -0.520355
     78 H34         7.6150    3.1020    0.3890 hn        1 MOL      0.301703
     79 H35         5.4850    4.1220   -1.3990 h1        1 MOL      0.102492
     80 H36         6.5240    4.9630   -0.3010 h1        1 MOL      0.102492
     81 N9          3.6470    4.7970   -0.1010 n         1 MOL     -0.765758
     82 C25         2.2450    4.8360    0.3480 c3        1 MOL      0.459351
     83 C26         1.7820    3.3670    0.7170 c         1 MOL      0.549423
     84 O13         2.2570    2.3920    0.1980 o         1 MOL     -0.634226
     85 C27         1.3830    5.4690   -0.7820 c3        1 MOL     -0.283948
     86 C28         1.6160    6.9050   -0.9260 ca        1 MOL      0.109403
     87 C29         2.5000    7.4340   -1.8940 ca        1 MOL     -0.163255
     88 C30         0.9740    7.7870   -0.0430 ca        1 MOL     -0.163255
     89 C31         2.8900    8.7540   -1.8180 ca        1 MOL     -0.240792
     90 C32         1.4340    9.0810    0.0840 ca        1 MOL     -0.240792
     91 C33         2.4090    9.6440   -0.8170 ca        1 MOL      0.325498
     92 O14         2.7570   10.9280   -0.8230 oh        1 MOL     -0.453330
     93 H37         3.7820    5.0330   -1.0720 hn        1 MOL      0.281592
     94 H38         2.1450    5.4510    1.2370 h1        1 MOL      0.008902
     95 H39         0.3780    5.2080   -0.4580 hc        1 MOL      0.073444
     96 H40         1.5520    5.0100   -1.7630 hc        1 MOL      0.073444
     97 H41         3.0480    6.7790   -2.5530 ha        1 MOL      0.133125
     98 H42         0.2760    7.4410    0.6960 ha        1 MOL      0.133125
     99 H43         3.6390    9.1750   -2.4780 ha        1 MOL      0.142419
    100 H44         1.0600    9.6950    0.8850 ha        1 MOL      0.142419
    101 H45         3.4360   11.1900   -1.4480 ho        1 MOL      0.371473
    102 N10         0.7350    3.2830    1.5250 n         1 MOL     -0.664449
    103 C34         0.2070    2.1230    2.1470 c3        1 MOL      0.390861
    104 C35        -0.1090    0.9740    1.1420 c         1 MOL      0.126340
    105 O15         0.6980    0.2250    0.6360 o         1 MOL     -0.039904
    106 C36         1.0580    1.6190    3.3740 c3        1 MOL      0.211265
    107 C37         0.4050    0.3520    4.0990 c3        1 MOL     -0.258000
    108 C38         1.3910    2.6100    4.4340 c3        1 MOL     -0.301190
    109 C39        -0.8360    0.6340    4.9230 c3        1 MOL     -0.227512
    110 H46         0.3830    4.1950    1.7710 hn        1 MOL      0.296387
    111 H47        -0.7620    2.3470    2.6040 h1        1 MOL     -0.008884
    112 H48         1.9900    1.2570    2.9220 hc        1 MOL      0.020618
    113 H49         1.1720    0.0040    4.7970 hc        1 MOL      0.106712
    114 H50         0.2330   -0.4190    3.3460 hc        1 MOL      0.106712
    115 H51         2.0110    2.1100    5.1740 hc        1 MOL      0.071547
    116 H52         1.9060    3.4140    3.9180 hc        1 MOL      0.071547
    117 H53         0.4880    3.0350    4.8740 hc        1 MOL      0.071547
    118 H54        -1.5210    1.3600    4.4720 hc        1 MOL      0.066932
    119 H55        -1.3770   -0.3060    5.0890 hc        1 MOL      0.066932
    120 H56        -0.5970    1.0850    5.8850 hc        1 MOL      0.066932
    121 N11        -1.4140    0.6960    1.0180 n         1 MOL     -0.443558
    122 C40        -1.8410   -0.4120    0.2380 c3        1 MOL      0.013562
    123 C41        -3.3030   -0.3390   -0.3720 c         1 MOL      0.657343
    124 O16        -3.6410   -0.9810   -1.3460 o         1 MOL     -0.548041
    125 C42        -1.8510   -1.6740    1.1310 c3        1 MOL      0.356402
    126 O17        -2.5780   -1.3770    2.3090 oh        1 MOL     -0.639462
    127 H57        -2.0990    1.2200    1.5400 hn        1 MOL      0.306499
    128 H58        -1.1880   -0.6080   -0.6140 h1        1 MOL      0.030411
    129 H59        -0.8060   -1.9680    1.2670 h1        1 MOL     -0.065223
    130 H60        -2.4090   -2.4010    0.5430 h1        1 MOL     -0.065223
    131 H61        -2.4120   -2.0000    3.0150 ho        1 MOL      0.420673
    132 N12        -4.0840    0.6500    0.1000 n         1 MOL     -0.643719
    133 C43        -5.4650    0.6660   -0.2730 c3        1 MOL      0.256439
    134 C44        -5.6950    1.0980   -1.7220 c         1 MOL      0.596588
    135 O18        -4.7690    1.6940   -2.2920 o         1 MOL     -0.571132
    136 C45        -6.1010    1.6390    0.7380 c3        1 MOL     -0.319183
    137 H62        -3.8270    1.2810    0.8420 hn        1 MOL      0.322780
    138 H63        -5.9500   -0.3080   -0.1620 h1        1 MOL      0.029666
    139 H64        -5.4760    2.5350    0.8160 hc        1 MOL      0.092782
    140 H65        -7.0880    1.8980    0.3840 hc        1 MOL      0.092782
    141 H66        -6.1150    1.1590    1.7120 hc        1 MOL      0.092782
    142 N13        -6.8430    0.7920   -2.3560 n         1 MOL     -0.690153
    143 C46        -8.0170    0.1910   -1.7190 c3        1 MOL      0.552116
    144 C47        -9.3120    0.7360   -2.2120 c         1 MOL      0.260019
    145 O19        -9.3780    1.2430   -3.3510 o         1 MOL     -0.520820
    146 C48        -8.0140   -1.2760   -2.1860 c3        1 MOL     -0.248262
    147 H67        -6.8030    0.9860   -3.3580 hn        1 MOL      0.352213
    148 H68        -7.9380    0.2520   -0.6330 h1        1 MOL     -0.039580
    149 H69        -8.2240   -1.3760   -3.2540 hc        1 MOL      0.063034
    150 H70        -7.0120   -1.6580   -1.9930 hc        1 MOL      0.063034
    151 H71        -8.7290   -1.7430   -1.5230 hc        1 MOL      0.063034
    152 N14       -10.4500    0.7210   -1.4800 n         1 MOL     -0.323899
    153 C49       -10.5460    0.5090   -0.0430 c3        1 MOL     -0.307093
    154 C50        -9.8600    1.6060    0.8270 c         1 MOL      0.403806
    155 O20        -9.3290    1.2300    1.8920 o         1 MOL     -0.495658
    156 C51       -12.1090    0.3870    0.3280 c3        1 MOL      0.100531
    157 C52       -12.7000   -0.8160   -0.4140 c3        1 MOL     -0.103104
    158 C53       -14.0370   -1.2540    0.2270 c         1 MOL      0.613993
    159 O21       -14.0280   -2.0830    1.1710 o         1 MOL     -0.641766
    160 O22       -15.0400   -0.6290   -0.1990 o         1 MOL     -0.641766
    161 H72       -11.2300    1.1070   -1.9810 hn        1 MOL      0.327344
    162 H73       -10.0690   -0.4460    0.2020 h1        1 MOL      0.181644
    163 H74       -12.6150    1.3330    0.1050 hc        1 MOL      0.035616
    164 H75       -12.1540    0.1160    1.3850 hc        1 MOL      0.035616
    165 H76       -11.9820   -1.6150   -0.2340 hc        1 MOL     -0.009946
    166 H77       -12.7900   -0.5610   -1.4610 hc        1 MOL     -0.009946
    167 N15        -9.8010    2.8330    0.2980 n         1 MOL     -0.169687
    168 C54        -9.2680    3.9910    0.9870 c3        1 MOL     -0.364376
    169 H78        -8.2080    3.8390    1.1860 h1        1 MOL      0.140200
    170 H79        -9.3980    4.8770    0.3650 h1        1 MOL      0.140200
    171 H80        -9.7970    4.1280    1.9310 h1        1 MOL      0.140200
    172 H81       -10.2370    2.9670   -0.6010 hn        1 MOL      0.249474
    173 Ca1         2.7260    0.1250   -1.1180 Ca        1 MOL      1.719768
    174 O23         3.5030    1.7030   -3.1170 oh        1 MOL     -0.844548
    175 H82         4.4050    1.5080   -3.3550 ho        1 MOL      0.417095
    176 H83         3.3170    2.5390   -3.5420 ho        1 MOL      0.417095
    177 O24         0.4770    1.1920   -2.3770 oh        1 MOL     -0.844548
    178 H84         0.5870    2.0860   -2.7110 ho        1 MOL      0.417095
    179 H85        -0.4560    1.0120   -2.4920 ho        1 MOL      0.417095
    180 O25         0.7530   -1.6880   -1.8650 oh        1 MOL     -0.844548
    181 H86        -0.1380   -1.8090   -2.1910 ho        1 MOL      0.417095
    182 H87         1.3100   -1.9440   -2.5980 ho        1 MOL      0.417095
@<TRIPOS>BOND
     1    1    2 1   
     2    1    4 1   
     3    1    5 1   
     4    1    6 1   
     5    2    3 2   
     6    2    7 1   
     7    7    8 1   
     8    7   15 1   
     9    8    9 1   
    10    8   11 1   
    11    8   16 1   
    12    9   10 2   
    13    9   19 1   
    14   11   12 1   
    15   11   17 1   
    16   11   18 1   
    17   12   13 1   
    18   12   14 1   
    19   19   20 1   
    20   19   28 1   
    21   20   21 1   
    22   20   23 1   
    23   20   29 1   
    24   21   22 2   
    25   21   41 1   
    26   23   24 1   
    27   23   30 1   
    28   23   31 1   
    29   24   25 1   
    30   24   32 1   
    31   24   33 1   
    32   25   26 1   
    33   25   34 1   
    34   25   35 1   
    35   26   27 1   
    36   26   36 1   
    37   26   37 1   
    38   27   38 1   
    39   27   39 1   
    40   27   40 1   
    41   41   42 1   
    42   41   49 1   
    43   42   43 1   
    44   42   45 1   
    45   42   50 1   
    46   43   44 2   
    47   43   53 1   
    48   45   46 1   
    49   45   51 1   
    50   45   52 1   
    51   46   47 1   
    52   46   48 1   
    53   53   54 1   
    54   53   57 1   
    55   54   55 1   
    56   54   58 1   
    57   54   59 1   
    58   55   56 2   
    59   55   60 1   
    60   60   61 1   
    61   60   68 1   
    62   61   62 1   
    63   61   64 1   
    64   61   69 1   
    65   62   63 2   
    66   62   74 1   
    67   64   65 1   
    68   64   70 1   
    69   64   71 1   
    70   65   66 1   
    71   65   67 2   
    72   66   72 1   
    73   66   73 1   
    74   74   75 1   
    75   74   78 1   
    76   75   76 1   
    77   75   79 1   
    78   75   80 1   
    79   76   77 2   
    80   76   81 1   
    81   81   82 1   
    82   81   93 1   
    83   82   83 1   
    84   82   85 1   
    85   82   94 1   
    86   83   84 2   
    87   83  102 1   
    88   85   86 1   
    89   85   95 1   
    90   85   96 1   
    91   86   87 ar  
    92   86   88 ar  
    93   87   89 ar  
    94   87   97 1   
    95   88   90 ar  
    96   88   98 1   
    97   89   91 ar  
    98   89   99 1   
    99   90   91 ar  
   100   90  100 1   
   101   91   92 1   
   102   92  101 1   
   103  102  103 1   
   104  102  110 1   
   105  103  104 1   
   106  103  106 1   
   107  103  111 1   
   108  104  105 2   
   109  104  121 1   
   110  106  107 1   
   111  106  108 1   
   112  106  112 1   
   113  107  109 1   
   114  107  113 1   
   115  107  114 1   
   116  108  115 1   
   117  108  116 1   
   118  108  117 1   
   119  109  118 1   
   120  109  119 1   
   121  109  120 1   
   122  121  122 1   
   123  121  127 1   
   124  122  123 1   
   125  122  125 1   
   126  122  128 1   
   127  123  124 2   
   128  123  132 1   
   129  125  126 1   
   130  125  129 1   
   131  125  130 1   
   132  126  131 1   
   133  132  133 1   
   134  132  137 1   
   135  133  134 1   
   136  133  136 1   
   137  133  138 1   
   138  134  135 2   
   139  134  142 1   
   140  136  139 1   
   141  136  140 1   
   142  136  141 1   
   143  142  143 1   
   144  142  147 1   
   145  143  144 1   
   146  143  146 1   
   147  143  148 1   
   148  144  145 2   
   149  144  152 1   
   150  146  149 1   
   151  146  150 1   
   152  146  151 1   
   153  152  153 1   
   154  152  161 1   
   155  153  154 1   
   156  153  156 1   
   157  153  162 1   
   158  154  155 2   
   159  154  167 1   
   160  156  157 1   
   161  156  163 1   
   162  156  164 1   
   163  157  158 1   
   164  157  165 1   
   165  157  166 1   
   166  158  159 1   
   167  158  160 1   
   168  167  168 1   
   169  167  172 1   
   170  168  169 1   
   171  168  170 1   
   172  168  171 1   
   173  174  175 1   
   174  174  176 1   
   175  177  178 1   
   176  177  179 1   
   177  180  181 1   
   178  180  182 1   
@<TRIPOS>SUBSTRUCTURE
     1 MOL         1 TEMP              0 ****  ****    0 ROOT
