@<TRIPOS>MOLECULE
MOL
  181   177     1     0     0
SMALL
resp


@<TRIPOS>ATOM
      1 C1          6.3100    7.5800   -1.6220 c3        1 MOL     -0.466950
      2 C2          6.2850    6.8490   -0.3010 c         1 MOL      0.732726
      3 O1          5.7800    7.2410    0.7590 o         1 MOL     -0.594557
      4 H1          5.5280    8.3380   -1.6330 hc        1 MOL      0.136416
      5 H2          7.2810    8.0580   -1.7550 hc        1 MOL      0.136416
      6 H3          6.1400    6.8720   -2.4340 hc        1 MOL      0.136416
      7 N1          6.9590    5.6870   -0.1570 n         1 MOL     -0.583003
      8 C3          7.6040    4.8780   -1.1750 c3        1 MOL      0.031473
      9 C4          8.7410    4.0110   -0.7460 c         1 MOL      0.475882
     10 O2          9.5150    3.4990   -1.5420 o         1 MOL     -0.526056
     11 C5          6.4630    4.0120   -1.7740 c3        1 MOL     -0.168203
     12 C6          5.7750    3.1030   -0.7680 c         1 MOL      0.682336
     13 O3          4.6040    3.2590   -0.4240 o         1 MOL     -0.664622
     14 O4          6.4510    2.1620   -0.2860 o         1 MOL     -0.664622
     15 H4          6.9770    5.4350    0.8140 hn        1 MOL      0.289670
     16 H5          8.0510    5.4770   -1.9640 h1        1 MOL      0.094677
     17 H6          6.8480    3.3850   -2.5840 hc        1 MOL      0.058310
     18 H7          5.7850    4.6530   -2.3270 hc        1 MOL      0.058310
     19 N2          8.8860    3.7310    0.5690 n         1 MOL     -0.332724
     20 C7         10.0620    3.0490    1.1410 c3        1 MOL     -0.086708
     21 C8         10.1550    1.5580    0.6500 c         1 MOL      0.604981
     22 O5         11.2250    1.0260    0.7300 o         1 MOL     -0.565552
     23 C9          9.6750    3.2070    2.6070 c3        1 MOL     -0.072894
     24 H8          8.2310    4.1740    1.1980 hn        1 MOL      0.265313
     25 H9         11.0170    3.5760    1.0660 h1        1 MOL      0.115399
     26 H10         8.8090    2.5920    2.8340 hc        1 MOL      0.028940
     27 H11        10.4100    2.9220    3.3550 hc        1 MOL      0.028940
     28 H12         9.4480    4.2240    2.9230 hc        1 MOL      0.028940
     29 N3          9.0460    0.9380    0.2010 n         1 MOL     -0.235137
     30 C10         9.1040   -0.4860   -0.1890 c3        1 MOL      0.054240
     31 C11         8.6840   -0.8540   -1.5730 c         1 MOL      0.241117
     32 O6          9.1650   -1.8070   -2.1760 o         1 MOL     -0.455543
     33 C12         8.1960   -1.3450    0.7860 c3        1 MOL     -0.224874
     34 C13         6.7840   -0.8800    0.9590 c         1 MOL      0.772774
     35 O7          6.3310   -0.4300    2.0190 o         1 MOL     -0.715810
     36 O8          6.0150   -1.0300   -0.0120 o         1 MOL     -0.715810
     37 H13         8.1690    1.4280    0.1410 hn        1 MOL      0.090190
     38 H14        10.0770   -0.9400   -0.0100 h1        1 MOL      0.100025
     39 H15         8.6710   -1.2650    1.7620 hc        1 MOL      0.057298
     40 H16         8.2060   -2.4030    0.5260 hc        1 MOL      0.057298
     41 N4          7.6920   -0.1660   -2.1490 n         1 MOL      0.036841
     42 C14         7.2140   -0.4450   -3.4430 c3        1 MOL     -0.320657
     43 C15         6.4160   -1.7880   -3.5390 c         1 MOL      0.751974
     44 O9          6.2660   -2.1650   -4.6930 o         1 MOL     -0.565590
     45 H17         7.3630    0.6190   -1.5990 hn        1 MOL      0.116455
     46 H18         8.0540   -0.5290   -4.1250 h1        1 MOL      0.115885
     47 H19         6.6840    0.3940   -3.8880 h1        1 MOL      0.115885
     48 N5          6.0230   -2.3060   -2.4000 n         1 MOL     -0.792125
     49 C16         5.5120   -3.6540   -2.3270 c3        1 MOL      0.362855
     50 C17         4.4210   -3.9390   -1.2900 c         1 MOL      0.397388
     51 O10         3.8170   -5.0500   -1.4150 o         1 MOL     -0.530908
     52 C18         6.6060   -4.6560   -1.9170 c3        1 MOL     -0.282233
     53 C19         7.6950   -4.8560   -2.9700 c         1 MOL      0.623866
     54 N6          8.9080   -4.4680   -2.7160 n         1 MOL     -0.729152
     55 O11         7.5010   -5.3020   -4.0960 o         1 MOL     -0.548089
     56 H20         6.2060   -1.8010   -1.5510 hn        1 MOL      0.334772
     57 H21         5.1390   -4.1480   -3.2230 h1        1 MOL      0.042060
     58 H22         6.1720   -5.6450   -1.7730 hc        1 MOL      0.072384
     59 H23         6.9820   -4.2970   -0.9620 hc        1 MOL      0.072384
     60 H24         9.1880   -4.1170   -1.8060 hn        1 MOL      0.341104
     61 H25         9.5780   -4.5980   -3.4530 hn        1 MOL      0.341104
     62 N7          4.0280   -3.0770   -0.3220 n         1 MOL     -0.323694
     63 C20         2.8190   -3.2870    0.5160 c3        1 MOL      0.040075
     64 C21         2.2900   -2.2160    1.4470 c         1 MOL      0.607319
     65 O12         2.8790   -1.1350    1.4550 o         1 MOL     -0.654698
     66 H26         4.6020   -2.2520   -0.1660 hn        1 MOL      0.257396
     67 H27         2.9800   -4.1850    1.1250 h1        1 MOL      0.055130
     68 H28         2.0290   -3.6210   -0.1630 h1        1 MOL      0.055130
     69 N8          1.3670   -2.5410    2.3800 n         1 MOL     -0.367727
     70 C22         0.6310   -3.7960    2.5680 c3        1 MOL     -0.192612
     71 C23        -0.8960   -3.5640    2.3730 c         1 MOL      0.453161
     72 O13        -1.6600   -4.5010    2.5340 o         1 MOL     -0.547944
     73 C24         0.8500   -4.5470    3.9350 c3        1 MOL      0.399937
     74 C25         2.2450   -5.0980    3.9010 c3        1 MOL     -0.339503
     75 O14         0.7000   -3.5870    4.9050 oh        1 MOL     -0.582529
     76 H29         1.0600   -1.7780    2.9710 hn        1 MOL      0.267212
     77 H30         0.8750   -4.4850    1.7540 h1        1 MOL      0.152250
     78 H31         0.1730   -5.3790    4.1510 h1        1 MOL      0.026823
     79 H32         0.3270   -4.0230    5.6860 ho        1 MOL      0.384805
     80 H33         3.0130   -4.4150    3.5290 hc        1 MOL      0.079110
     81 H34         2.7010   -5.3950    4.8450 hc        1 MOL      0.079110
     82 H35         2.1520   -5.9570    3.2290 hc        1 MOL      0.079110
     83 N9         -1.3110   -2.3430    2.1890 n         1 MOL     -0.188970
     84 C26        -2.7140   -1.8720    2.2660 c3        1 MOL     -0.247264
     85 C27        -3.0520   -0.7550    1.2740 c         1 MOL      0.550874
     86 O15        -2.3970    0.2860    1.2580 o         1 MOL     -0.578479
     87 C28        -3.1260   -1.4120    3.7380 c3        1 MOL      0.169513
     88 C29        -2.6890   -2.3840    4.8620 c3        1 MOL      0.035349
     89 C30        -4.5610   -0.9740    3.7590 c3        1 MOL     -0.170197
     90 C31        -2.6170   -1.8280    6.3500 c3        1 MOL     -0.039474
     91 H36        -0.6500   -1.6170    1.9390 hn        1 MOL      0.172861
     92 H37        -3.3100   -2.7250    1.9580 h1        1 MOL      0.207411
     93 H38        -2.6030   -0.5010    4.0190 hc        1 MOL      0.010553
     94 H39        -1.6880   -2.7050    4.5650 hc        1 MOL     -0.032881
     95 H40        -3.4090   -3.2060    4.8690 hc        1 MOL     -0.032881
     96 H41        -4.6860    0.0400    3.4130 hc        1 MOL      0.061314
     97 H42        -5.1850   -1.7650    3.3510 hc        1 MOL      0.061314
     98 H43        -4.9080   -0.8930    4.7900 hc        1 MOL      0.061314
     99 H44        -3.5170   -1.4290    6.8090 hc        1 MOL     -0.003345
    100 H45        -2.2910   -2.6490    6.9940 hc        1 MOL     -0.003345
    101 H46        -1.7800   -1.1280    6.3550 hc        1 MOL     -0.003345
    102 N10        -4.0810   -0.8540    0.4470 n         1 MOL     -0.355558
    103 C32        -5.2520   -1.6900    0.3370 c3        1 MOL      0.001682
    104 C33        -6.3580   -0.9940   -0.4690 c         1 MOL      0.681056
    105 O16        -6.0960   -0.0130   -1.0860 o         1 MOL     -0.520339
    106 C34        -5.0620   -3.0750   -0.2020 c3        1 MOL     -0.209990
    107 C35        -4.1420   -3.1420   -1.4800 c         1 MOL      0.846710
    108 O17        -3.9190   -4.2290   -1.9430 o         1 MOL     -0.757148
    109 O18        -3.5910   -2.1730   -1.9660 o         1 MOL     -0.757148
    110 H47        -4.1660   -0.0440   -0.1620 hn        1 MOL      0.282248
    111 H48        -5.7210   -1.7790    1.3200 h1        1 MOL     -0.002300
    112 H49        -5.9990   -3.5960   -0.4030 hc        1 MOL      0.012634
    113 H50        -4.5900   -3.7340    0.5310 hc        1 MOL      0.012634
    114 N11        -7.6840   -1.3590   -0.2040 n         1 MOL     -0.538813
    115 C36        -8.9260   -0.6670   -0.6430 c3        1 MOL      0.504252
    116 C37        -9.9190   -0.2230    0.4620 c         1 MOL      0.183088
    117 O19        -9.7730   -0.8590    1.4990 o         1 MOL     -0.518154
    118 C38        -9.6760   -1.7670   -1.5000 c3        1 MOL     -0.359790
    119 C39        -8.9120   -2.0520   -2.8030 ca        1 MOL      0.297088
    120 C40        -8.3060   -3.2620   -3.0330 ca        1 MOL     -0.312590
    121 C41        -8.9490   -1.1470   -3.8300 ca        1 MOL     -0.312590
    122 C42        -7.5310   -3.5090   -4.2290 ca        1 MOL     -0.050127
    123 C43        -8.3160   -1.3660   -5.0700 ca        1 MOL     -0.050127
    124 C44        -7.5750   -2.5930   -5.2830 ca        1 MOL     -0.120862
    125 H51        -7.8110   -2.1000    0.4740 hn        1 MOL      0.275819
    126 H52        -8.7480    0.1120   -1.3890 h1        1 MOL     -0.023752
    127 H53       -10.6510   -1.3620   -1.7590 hc        1 MOL      0.077313
    128 H54        -9.7470   -2.6700   -0.9060 hc        1 MOL      0.077313
    129 H55        -8.3570   -4.0560   -2.3050 ha        1 MOL      0.141690
    130 H56        -9.5180   -0.2330   -3.7330 ha        1 MOL      0.141690
    131 H57        -7.1090   -4.4970   -4.3480 ha        1 MOL      0.097724
    132 H58        -8.4470   -0.6940   -5.9050 ha        1 MOL      0.097724
    133 H59        -7.2010   -2.8520   -6.2630 ha        1 MOL      0.091091
    134 N12       -10.8070    0.6790    0.2130 n         1 MOL      0.123111
    135 C45       -11.0680    1.4690   -0.9760 c3        1 MOL     -0.029715
    136 C46        -9.8730    2.3800   -1.2920 c         1 MOL      0.557422
    137 O20        -9.6160    2.6220   -2.4660 o         1 MOL     -0.569708
    138 C47       -12.3810    2.1830   -0.7270 c3        1 MOL     -0.182104
    139 C48       -13.1760    1.4500    0.3870 c3        1 MOL     -0.043816
    140 C49       -11.9310    0.9060    1.1570 c3        1 MOL     -0.119588
    141 H60       -11.1720    0.8000   -1.8310 h1        1 MOL      0.031822
    142 H61       -12.2910    3.2190   -0.4020 hc        1 MOL      0.079335
    143 H62       -12.9490    2.3280   -1.6470 hc        1 MOL      0.079335
    144 H63       -13.7990    2.0830    1.0190 hc        1 MOL      0.041741
    145 H64       -13.7890    0.6260    0.0330 hc        1 MOL      0.041741
    146 H65       -11.5620    1.6180    1.9000 h1        1 MOL      0.075541
    147 H66       -12.3090   -0.0020    1.6220 h1        1 MOL      0.075541
    148 N13        -9.0710    2.8440   -0.3380 n         1 MOL     -0.528534
    149 C50        -7.8200    3.5030   -0.5910 c3        1 MOL      0.201202
    150 C51        -7.9680    4.9050   -1.2220 c         1 MOL      0.443061
    151 O21        -8.4360    5.8310   -0.5880 o         1 MOL     -0.590791
    152 C52        -6.9700    3.5570    0.7040 c3        1 MOL      0.038331
    153 C53        -6.5390    2.2650    1.3290 c3        1 MOL     -0.127778
    154 C54        -6.2940    2.4820    2.8350 c         1 MOL      0.715585
    155 O22        -5.3020    3.2120    3.2120 o         1 MOL     -0.740024
    156 O23        -7.0310    1.9300    3.6490 o         1 MOL     -0.740024
    157 H67        -9.3440    2.8250    0.6330 hn        1 MOL      0.315589
    158 H68        -7.1800    2.9400   -1.2680 h1        1 MOL      0.059896
    159 H69        -7.5930    4.0550    1.4550 hc        1 MOL     -0.008452
    160 H70        -6.1760    4.2870    0.5670 hc        1 MOL     -0.008452
    161 H71        -5.6020    1.8980    0.9120 hc        1 MOL     -0.009969
    162 H72        -7.3260    1.5150    1.2490 hc        1 MOL     -0.009969
    163 N14        -7.6310    5.1470   -2.4780 n         1 MOL     -0.290593
    164 C55        -7.0330    4.2480   -3.4750 c3        1 MOL     -0.176830
    165 H73        -6.3470    3.5610   -2.9800 h1        1 MOL      0.084843
    166 H74        -7.8200    3.6810   -3.9710 h1        1 MOL      0.084843
    167 H75        -6.4870    4.8360   -4.2140 h1        1 MOL      0.084843
    168 H76        -7.7460    6.0990   -2.7850 hn        1 MOL      0.250868
    169 Ca1         4.4140    1.0060    0.9870 Ca        1 MOL      1.758544
    170 O24         3.2660    0.5090   -1.5840 oh        1 MOL     -0.860674
    171 H77         3.3690    1.1690   -2.2640 ho        1 MOL      0.427997
    172 H78         2.5470   -0.0420   -1.8930 ho        1 MOL      0.427997
    173 O25         3.9030    0.5070    3.7130 oh        1 MOL     -0.860674
    174 H79         3.6410    1.1520    4.3790 ho        1 MOL      0.427997
    175 H80         3.5740   -0.3240    4.0370 ho        1 MOL      0.427997
    176 O26         4.8840    3.1370    2.5880 oh        1 MOL     -0.860674
    177 H81         4.1080    3.6840    2.7000 ho        1 MOL      0.427997
    178 H82         5.5810    3.6190    3.0320 ho        1 MOL      0.427997
    179 O27         1.9180    1.7780    1.0880 oh        1 MOL     -0.860674
    180 H83         1.3650    1.0060    0.9200 ho        1 MOL      0.427997
    181 H84         1.2960    2.4700    1.3090 ho        1 MOL      0.427997
@<TRIPOS>BOND
     1    1    2 1   
     2    1    4 1   
     3    1    5 1   
     4    1    6 1   
     5    2    3 2   
     6    2    7 1   
     7    7    8 1   
     8    7   15 1   
     9    8    9 1   
    10    8   11 1   
    11    8   16 1   
    12    9   10 2   
    13    9   19 1   
    14   11   12 1   
    15   11   17 1   
    16   11   18 1   
    17   12   13 1   
    18   12   14 1   
    19   19   20 1   
    20   19   24 1   
    21   20   21 1   
    22   20   23 1   
    23   20   25 1   
    24   21   22 2   
    25   21   29 1   
    26   23   26 1   
    27   23   27 1   
    28   23   28 1   
    29   29   30 1   
    30   29   37 1   
    31   30   31 1   
    32   30   33 1   
    33   30   38 1   
    34   31   32 2   
    35   31   41 1   
    36   33   34 1   
    37   33   39 1   
    38   33   40 1   
    39   34   35 1   
    40   34   36 1   
    41   41   42 1   
    42   41   45 1   
    43   42   43 1   
    44   42   46 1   
    45   42   47 1   
    46   43   44 2   
    47   43   48 1   
    48   48   49 1   
    49   48   56 1   
    50   49   50 1   
    51   49   52 1   
    52   49   57 1   
    53   50   51 2   
    54   50   62 1   
    55   52   53 1   
    56   52   58 1   
    57   52   59 1   
    58   53   54 1   
    59   53   55 2   
    60   54   60 1   
    61   54   61 1   
    62   62   63 1   
    63   62   66 1   
    64   63   64 1   
    65   63   67 1   
    66   63   68 1   
    67   64   65 2   
    68   64   69 1   
    69   69   70 1   
    70   69   76 1   
    71   70   71 1   
    72   70   73 1   
    73   70   77 1   
    74   71   72 2   
    75   71   83 1   
    76   73   74 1   
    77   73   75 1   
    78   73   78 1   
    79   74   80 1   
    80   74   81 1   
    81   74   82 1   
    82   75   79 1   
    83   83   84 1   
    84   83   91 1   
    85   84   85 1   
    86   84   87 1   
    87   84   92 1   
    88   85   86 2   
    89   85  102 1   
    90   87   88 1   
    91   87   89 1   
    92   87   93 1   
    93   88   90 1   
    94   88   94 1   
    95   88   95 1   
    96   89   96 1   
    97   89   97 1   
    98   89   98 1   
    99   90   99 1   
   100   90  100 1   
   101   90  101 1   
   102  102  103 1   
   103  102  110 1   
   104  103  104 1   
   105  103  106 1   
   106  103  111 1   
   107  104  105 2   
   108  104  114 1   
   109  106  107 1   
   110  106  112 1   
   111  106  113 1   
   112  107  108 1   
   113  107  109 1   
   114  114  115 1   
   115  114  125 1   
   116  115  116 1   
   117  115  118 1   
   118  115  126 1   
   119  116  117 2   
   120  116  134 1   
   121  118  119 1   
   122  118  127 1   
   123  118  128 1   
   124  119  120 ar  
   125  119  121 ar  
   126  120  122 ar  
   127  120  129 1   
   128  121  123 ar  
   129  121  130 1   
   130  122  124 ar  
   131  122  131 1   
   132  123  124 ar  
   133  123  132 1   
   134  124  133 1   
   135  134  135 1   
   136  134  140 1   
   137  135  136 1   
   138  135  138 1   
   139  135  141 1   
   140  136  137 2   
   141  136  148 1   
   142  138  139 1   
   143  138  142 1   
   144  138  143 1   
   145  139  140 1   
   146  139  144 1   
   147  139  145 1   
   148  140  146 1   
   149  140  147 1   
   150  148  149 1   
   151  148  157 1   
   152  149  150 1   
   153  149  152 1   
   154  149  158 1   
   155  150  151 2   
   156  150  163 1   
   157  152  153 1   
   158  152  159 1   
   159  152  160 1   
   160  153  154 1   
   161  153  161 1   
   162  153  162 1   
   163  154  155 1   
   164  154  156 1   
   165  163  164 1   
   166  163  168 1   
   167  164  165 1   
   168  164  166 1   
   169  164  167 1   
   170  170  171 1   
   171  170  172 1   
   172  173  174 1   
   173  173  175 1   
   174  176  177 1   
   175  176  178 1   
   176  179  180 1   
   177  179  181 1   
@<TRIPOS>SUBSTRUCTURE
     1 MOL         1 TEMP              0 ****  ****    0 ROOT
