@<TRIPOS>MOLECULE
MOL
  181   177     1     0     0
SMALL
resp


@<TRIPOS>ATOM
      1 C1          1.1490    6.8280   -1.3300 c3        1 MOL     -0.426341
      2 C2          2.5680    6.3410   -0.9980 c         1 MOL      0.733566
      3 O1          3.0670    6.5730    0.1060 o         1 MOL     -0.612396
      4 H1          0.5930    6.9850   -0.4060 hc        1 MOL      0.104398
      5 H2          1.2060    7.7670   -1.8820 hc        1 MOL      0.104398
      6 H3          0.6400    6.0800   -1.9370 hc        1 MOL      0.104398
      7 N1          3.1830    5.5840   -1.8590 n         1 MOL     -0.519184
      8 C3          4.4470    4.9080   -1.5520 c3        1 MOL     -0.016414
      9 C4          4.3090    3.8220   -0.4900 c         1 MOL      0.743161
     10 O2          3.7100    2.7890   -0.8110 o         1 MOL     -0.573976
     11 C5          5.1660    4.5710   -2.8810 c3        1 MOL     -0.038294
     12 C6          6.6090    4.2750   -2.5880 c         1 MOL      0.710106
     13 O3          6.9490    3.0770   -2.4850 o         1 MOL     -0.738600
     14 O4          7.4030    5.1940   -2.6700 o         1 MOL     -0.738600
     15 H4          2.6760    5.3390   -2.6960 hn        1 MOL      0.286315
     16 H5          5.1460    5.6360   -1.1300 h1        1 MOL      0.042227
     17 H6          5.1070    5.3610   -3.6260 hc        1 MOL     -0.013292
     18 H7          4.6880    3.6730   -3.2900 hc        1 MOL     -0.013292
     19 N2          4.8680    4.0120    0.7220 n         1 MOL     -0.716580
     20 C7          5.0140    3.1030    1.7870 c3        1 MOL      0.355559
     21 C8          3.7010    3.0820    2.5980 c         1 MOL      0.637249
     22 O5          3.0520    4.1180    2.8150 o         1 MOL     -0.580615
     23 C9          6.3290    3.3500    2.6370 c3        1 MOL     -0.315863
     24 H8          5.1480    4.9500    0.9740 hn        1 MOL      0.366834
     25 H9          5.0920    2.0840    1.4100 h1        1 MOL      0.040278
     26 H10         6.6030    2.4510    3.1980 hc        1 MOL      0.082255
     27 H11         7.2130    3.4690    2.0150 hc        1 MOL      0.082255
     28 H12         6.1400    4.1960    3.2990 hc        1 MOL      0.082255
     29 N3          3.3340    2.0230    3.2890 n         1 MOL     -0.549243
     30 C10         4.0820    0.8380    3.6060 c3        1 MOL      0.209695
     31 C11         4.2590   -0.1220    2.3690 c         1 MOL      0.613014
     32 O6          3.3590   -0.1970    1.6000 o         1 MOL     -0.652131
     33 C12         3.5440    0.1610    4.8600 c3        1 MOL     -0.232808
     34 C13         2.0240   -0.2290    4.9310 c         1 MOL      0.759622
     35 O7          1.2700    0.0670    3.9900 o         1 MOL     -0.694580
     36 O8          1.5640   -0.8080    5.8980 o         1 MOL     -0.694580
     37 H13         2.5800    2.2910    3.9030 hn        1 MOL      0.276942
     38 H14         5.0740    1.1730    3.9180 h1        1 MOL     -0.031153
     39 H15         3.7070    0.8210    5.7070 hc        1 MOL      0.028870
     40 H16         4.1130   -0.7550    4.9850 hc        1 MOL      0.028870
     41 N4          5.3430   -0.8950    2.2860 n         1 MOL     -0.533874
     42 C14         5.7590   -1.5980    1.0930 c3        1 MOL      0.071768
     43 C15         6.8470   -0.7760    0.3430 c         1 MOL      0.566855
     44 O9          7.0410    0.3830    0.6880 o         1 MOL     -0.529393
     45 H17         5.9900   -0.5450    2.9770 hn        1 MOL      0.278211
     46 H18         4.8910   -1.7870    0.4610 h1        1 MOL      0.096492
     47 H19         6.2180   -2.5520    1.3490 h1        1 MOL      0.096492
     48 N5          7.5350   -1.3180   -0.6790 n         1 MOL     -0.541271
     49 C16         7.4260   -2.6750   -1.2290 c3        1 MOL      0.086053
     50 C17         6.3230   -2.7950   -2.2390 c         1 MOL      0.570565
     51 O10         6.1970   -3.8780   -2.7800 o         1 MOL     -0.552899
     52 C18         8.7480   -3.1890   -1.7430 c3        1 MOL     -0.377211
     53 C19         9.7600   -3.1820   -0.5930 c         1 MOL      0.673234
     54 N6         10.6470   -2.1830   -0.6090 n         1 MOL     -0.815804
     55 O11         9.6910   -4.0390    0.3340 o         1 MOL     -0.546186
     56 H20         8.1360   -0.6900   -1.1800 hn        1 MOL      0.314796
     57 H21         7.1860   -3.3190   -0.3790 h1        1 MOL      0.086763
     58 H22         8.9830   -2.5260   -2.5790 hc        1 MOL      0.117724
     59 H23         8.6780   -4.2320   -2.0560 hc        1 MOL      0.117724
     60 H24        10.5680   -1.5530   -1.3860 hn        1 MOL      0.387828
     61 H25        11.3410   -2.0800    0.1110 hn        1 MOL      0.387828
     62 N7          5.4830   -1.7460   -2.4840 n         1 MOL     -0.291448
     63 C20         4.3230   -1.7910   -3.3940 c3        1 MOL     -0.218427
     64 C21         3.1490   -2.6650   -2.9280 c         1 MOL      0.629787
     65 O12         2.1470   -2.5810   -3.5710 o         1 MOL     -0.567226
     66 H26         5.7270   -0.8760   -2.0350 hn        1 MOL      0.247266
     67 H27         4.6550   -2.0060   -4.4080 h1        1 MOL      0.124842
     68 H28         3.9010   -0.7880   -3.4330 h1        1 MOL      0.124842
     69 N8          3.1640   -3.2740   -1.7310 n         1 MOL     -0.334225
     70 C22         1.9880   -4.0310   -1.1850 c3        1 MOL     -0.176678
     71 C23         0.7800   -3.1110   -1.1230 c         1 MOL      0.647221
     72 O13         0.7880   -2.0970   -0.4010 o         1 MOL     -0.587486
     73 C24         2.3760   -4.6430    0.2070 c3        1 MOL      0.237433
     74 C25         3.4380   -5.7560    0.0430 c3        1 MOL     -0.383029
     75 O14         3.0750   -3.5990    0.9530 oh        1 MOL     -0.645857
     76 H29         3.9440   -3.1250   -1.1070 hn        1 MOL      0.174700
     77 H30         1.8390   -4.8330   -1.9110 h1        1 MOL      0.120165
     78 H31         1.4620   -5.0420    0.6190 h1        1 MOL      0.050380
     79 H32         2.4520   -3.2160    1.5750 ho        1 MOL      0.473283
     80 H33         4.4260   -5.4600   -0.3130 hc        1 MOL      0.110352
     81 H34         3.7200   -6.1110    1.0310 hc        1 MOL      0.110352
     82 H35         3.0310   -6.5970   -0.5100 hc        1 MOL      0.110352
     83 N9         -0.3090   -3.5110   -1.7890 n         1 MOL     -0.383899
     84 C26        -1.7200   -2.9590   -1.7600 c3        1 MOL     -0.098177
     85 C27        -2.3660   -3.5150   -0.5290 c         1 MOL      0.427197
     86 O15        -2.4270   -4.7320   -0.4240 o         1 MOL     -0.556803
     87 C28        -2.5050   -3.3040   -3.0320 c3        1 MOL      0.419747
     88 C29        -3.9830   -2.8090   -2.9730 c3        1 MOL     -0.044252
     89 C30        -1.6830   -2.7750   -4.2860 c3        1 MOL     -0.365702
     90 C31        -4.8680   -3.1440   -4.1740 c3        1 MOL     -0.207108
     91 H36        -0.3330   -4.3110   -2.4190 hn        1 MOL      0.230363
     92 H37        -1.7020   -1.8760   -1.6460 h1        1 MOL      0.146320
     93 H38        -2.6940   -4.3690   -3.1410 hc        1 MOL     -0.073394
     94 H39        -3.8970   -1.7370   -2.8010 hc        1 MOL      0.017703
     95 H40        -4.4300   -3.2460   -2.0770 hc        1 MOL      0.017703
     96 H41        -1.6990   -1.6860   -4.2810 hc        1 MOL      0.080221
     97 H42        -0.6570   -3.1410   -4.2800 hc        1 MOL      0.080221
     98 H43        -2.2180   -3.0880   -5.1760 hc        1 MOL      0.080221
     99 H44        -5.7810   -2.5500   -4.1990 hc        1 MOL      0.046232
    100 H45        -4.3660   -3.0230   -5.1340 hc        1 MOL      0.046232
    101 H46        -5.3430   -4.1240   -4.2300 hc        1 MOL      0.046232
    102 N10        -3.0630   -2.7230    0.3650 n         1 MOL     -0.140258
    103 C32        -3.6920   -3.1820    1.6140 c3        1 MOL     -0.048569
    104 C33        -5.0090   -2.4320    1.8120 c         1 MOL      0.430875
    105 O16        -5.6790   -2.5990    2.8740 o         1 MOL     -0.564882
    106 C34        -2.7400   -3.0930    2.8270 c3        1 MOL     -0.089273
    107 C35        -2.1530   -1.6770    2.9910 c         1 MOL      0.773652
    108 O17        -1.0660   -1.4360    2.4500 o         1 MOL     -0.674610
    109 O18        -2.7040   -0.8890    3.7670 o         1 MOL     -0.674610
    110 H47        -3.0200   -1.7200    0.2970 hn        1 MOL     -0.046310
    111 H48        -3.9720   -4.2010    1.3780 h1        1 MOL      0.118648
    112 H49        -1.9530   -3.8390    2.7020 hc        1 MOL      0.024892
    113 H50        -3.0630   -3.4040    3.8180 hc        1 MOL      0.024892
    114 N11        -5.4630   -1.6390    0.8650 n         1 MOL     -0.436828
    115 C36        -6.6910   -0.8850    1.0430 c3        1 MOL      0.523498
    116 C37        -6.5670    0.5550    0.5370 c         1 MOL      0.208597
    117 O19        -7.2790    0.9260   -0.4030 o         1 MOL     -0.469863
    118 C38        -7.7300   -1.7310    0.2740 c3        1 MOL     -0.457546
    119 C39        -9.1300   -1.1840    0.3160 ca        1 MOL      0.121422
    120 C40        -9.6830   -0.7050    1.5090 ca        1 MOL     -0.123657
    121 C41        -9.9250   -1.0940   -0.8460 ca        1 MOL     -0.123657
    122 C42       -11.0370   -0.3610    1.6710 ca        1 MOL     -0.137005
    123 C43       -11.3470   -0.9300   -0.6750 ca        1 MOL     -0.137005
    124 C44       -11.8760   -0.6220    0.5830 ca        1 MOL     -0.153113
    125 H51        -4.8820   -1.3690    0.0880 hn        1 MOL      0.220980
    126 H52        -7.0950   -0.8760    2.0570 h1        1 MOL      0.013082
    127 H53        -7.8200   -2.6910    0.7820 hc        1 MOL      0.144399
    128 H54        -7.4830   -1.9420   -0.7690 hc        1 MOL      0.144399
    129 H55        -9.0670   -0.6580    2.3950 ha        1 MOL      0.103695
    130 H56        -9.5660   -1.3450   -1.8370 ha        1 MOL      0.103695
    131 H57       -11.4670   -0.0760    2.6270 ha        1 MOL      0.105882
    132 H58       -12.0460   -0.8550   -1.4890 ha        1 MOL      0.105882
    133 H59       -12.9070   -0.4130    0.7990 ha        1 MOL      0.104173
    134 N12        -5.7670    1.4160    1.1800 n         1 MOL     -0.078644
    135 C45        -5.7560    2.8810    0.9560 c3        1 MOL      0.056340
    136 C46        -5.2360    3.3040   -0.4550 c         1 MOL      0.187552
    137 O20        -5.5620    4.4370   -0.9140 o         1 MOL     -0.492493
    138 C47        -4.8660    3.4550    1.9860 c3        1 MOL     -0.162598
    139 C48        -5.0810    2.4660    3.1180 c3        1 MOL     -0.336372
    140 C49        -5.1690    1.1200    2.4800 c3        1 MOL      0.038718
    141 H60        -6.7910    3.2130    0.9220 h1        1 MOL      0.074273
    142 H61        -3.8420    3.3840    1.6380 hc        1 MOL      0.112201
    143 H62        -5.1550    4.4760    2.2370 hc        1 MOL      0.112201
    144 H63        -4.2000    2.3920    3.7600 hc        1 MOL      0.117110
    145 H64        -5.9620    2.7540    3.6820 hc        1 MOL      0.117110
    146 H65        -4.1540    0.7970    2.2770 h1        1 MOL      0.090521
    147 H66        -5.8110    0.4750    3.0760 h1        1 MOL      0.090521
    148 N13        -4.6940    2.3580   -1.1890 n         1 MOL      0.114548
    149 C50        -4.2270    2.6120   -2.5650 c3        1 MOL     -0.424339
    150 C51        -5.4640    2.6980   -3.5210 c         1 MOL      0.598134
    151 O21        -5.5850    3.6240   -4.3410 o         1 MOL     -0.549107
    152 C52        -3.2950    1.5190   -2.9610 c3        1 MOL      0.100665
    153 C53        -2.0560    1.3390   -2.0390 c3        1 MOL      0.060714
    154 C54        -2.2500    0.5950   -0.7230 c         1 MOL      0.348757
    155 O22        -1.2640    0.4850   -0.0190 o         1 MOL     -0.528930
    156 O23        -3.2600   -0.0510   -0.5120 o         1 MOL     -0.528930
    157 H67        -4.5910    1.4310   -0.8040 hn        1 MOL      0.151378
    158 H68        -3.5860    3.4910   -2.5970 h1        1 MOL      0.167422
    159 H69        -2.8960    1.7230   -3.9510 hc        1 MOL     -0.028732
    160 H70        -3.8220    0.5790   -3.1490 hc        1 MOL     -0.028732
    161 H71        -1.6200    2.3160   -1.8830 hc        1 MOL      0.015257
    162 H72        -1.2790    0.8950   -2.6650 hc        1 MOL      0.015257
    163 N14        -6.4450    1.7940   -3.3290 n         1 MOL     -0.240228
    164 C55        -7.6140    1.8140   -4.1550 c3        1 MOL     -0.254076
    165 H73        -8.3810    2.4290   -3.6840 h1        1 MOL      0.100215
    166 H74        -7.3630    2.2310   -5.1310 h1        1 MOL      0.100215
    167 H75        -7.9900    0.7990   -4.2790 h1        1 MOL      0.100215
    168 H76        -6.3820    1.1750   -2.5310 hn        1 MOL      0.228570
    169 Ca1         0.7450   -0.0380    1.4120 Ca        1 MOL      1.687649
    170 O24         1.1490   -2.7780    2.5490 oh        1 MOL     -0.819177
    171 H77         1.1430   -3.6700    2.9170 ho        1 MOL      0.386649
    172 H78         0.2340   -2.5010    2.5620 ho        1 MOL      0.386649
    173 O25        -1.9660    1.4500    2.4720 oh        1 MOL     -0.819177
    174 H79        -2.1110    0.6560    2.9910 ho        1 MOL      0.386649
    175 H80        -2.3180    1.2440    1.6060 ho        1 MOL      0.386649
    176 O26         1.4430    1.3510   -0.8430 oh        1 MOL     -0.819177
    177 O27         0.7230    2.5530    1.8550 oh        1 MOL     -0.819177
    178 H81         1.5360    0.8870   -1.6780 ho        1 MOL      0.386649
    179 H82         1.2880    3.0740    2.4250 ho        1 MOL      0.386649
    180 H83         2.1070    2.0410   -0.8680 ho        1 MOL      0.386649
    181 H84        -0.1650    2.7610    2.1420 ho        1 MOL      0.386649
@<TRIPOS>BOND
     1    1    2 1   
     2    1    4 1   
     3    1    5 1   
     4    1    6 1   
     5    2    3 2   
     6    2    7 1   
     7    7    8 1   
     8    7   15 1   
     9    8    9 1   
    10    8   11 1   
    11    8   16 1   
    12    9   10 2   
    13    9   19 1   
    14   11   12 1   
    15   11   17 1   
    16   11   18 1   
    17   12   13 1   
    18   12   14 1   
    19   19   20 1   
    20   19   24 1   
    21   20   21 1   
    22   20   23 1   
    23   20   25 1   
    24   21   22 2   
    25   21   29 1   
    26   23   26 1   
    27   23   27 1   
    28   23   28 1   
    29   29   30 1   
    30   29   37 1   
    31   30   31 1   
    32   30   33 1   
    33   30   38 1   
    34   31   32 2   
    35   31   41 1   
    36   33   34 1   
    37   33   39 1   
    38   33   40 1   
    39   34   35 1   
    40   34   36 1   
    41   41   42 1   
    42   41   45 1   
    43   42   43 1   
    44   42   46 1   
    45   42   47 1   
    46   43   44 2   
    47   43   48 1   
    48   48   49 1   
    49   48   56 1   
    50   49   50 1   
    51   49   52 1   
    52   49   57 1   
    53   50   51 2   
    54   50   62 1   
    55   52   53 1   
    56   52   58 1   
    57   52   59 1   
    58   53   54 1   
    59   53   55 2   
    60   54   60 1   
    61   54   61 1   
    62   62   63 1   
    63   62   66 1   
    64   63   64 1   
    65   63   67 1   
    66   63   68 1   
    67   64   65 2   
    68   64   69 1   
    69   69   70 1   
    70   69   76 1   
    71   70   71 1   
    72   70   73 1   
    73   70   77 1   
    74   71   72 2   
    75   71   83 1   
    76   73   74 1   
    77   73   75 1   
    78   73   78 1   
    79   74   80 1   
    80   74   81 1   
    81   74   82 1   
    82   75   79 1   
    83   83   84 1   
    84   83   91 1   
    85   84   85 1   
    86   84   87 1   
    87   84   92 1   
    88   85   86 2   
    89   85  102 1   
    90   87   88 1   
    91   87   89 1   
    92   87   93 1   
    93   88   90 1   
    94   88   94 1   
    95   88   95 1   
    96   89   96 1   
    97   89   97 1   
    98   89   98 1   
    99   90   99 1   
   100   90  100 1   
   101   90  101 1   
   102  102  103 1   
   103  102  110 1   
   104  103  104 1   
   105  103  106 1   
   106  103  111 1   
   107  104  105 2   
   108  104  114 1   
   109  106  107 1   
   110  106  112 1   
   111  106  113 1   
   112  107  108 1   
   113  107  109 1   
   114  114  115 1   
   115  114  125 1   
   116  115  116 1   
   117  115  118 1   
   118  115  126 1   
   119  116  117 2   
   120  116  134 1   
   121  118  119 1   
   122  118  127 1   
   123  118  128 1   
   124  119  120 ar  
   125  119  121 ar  
   126  120  122 ar  
   127  120  129 1   
   128  121  123 ar  
   129  121  130 1   
   130  122  124 ar  
   131  122  131 1   
   132  123  124 ar  
   133  123  132 1   
   134  124  133 1   
   135  134  135 1   
   136  134  140 1   
   137  135  136 1   
   138  135  138 1   
   139  135  141 1   
   140  136  137 2   
   141  136  148 1   
   142  138  139 1   
   143  138  142 1   
   144  138  143 1   
   145  139  140 1   
   146  139  144 1   
   147  139  145 1   
   148  140  146 1   
   149  140  147 1   
   150  148  149 1   
   151  148  157 1   
   152  149  150 1   
   153  149  152 1   
   154  149  158 1   
   155  150  151 2   
   156  150  163 1   
   157  152  153 1   
   158  152  159 1   
   159  152  160 1   
   160  153  154 1   
   161  153  161 1   
   162  153  162 1   
   163  154  155 1   
   164  154  156 1   
   165  163  164 1   
   166  163  168 1   
   167  164  165 1   
   168  164  166 1   
   169  164  167 1   
   170  170  171 1   
   171  170  172 1   
   172  173  174 1   
   173  173  175 1   
   174  176  178 1   
   175  176  180 1   
   176  177  179 1   
   177  177  181 1   
@<TRIPOS>SUBSTRUCTURE
     1 MOL         1 TEMP              0 ****  ****    0 ROOT
