@<TRIPOS>MOLECULE
MOL
  184   179     1     0     0
SMALL
resp


@<TRIPOS>ATOM
      1 C1         -4.5680    0.8840    3.7010 c3        1 MOL     -0.232204
      2 C2         -4.8700   -0.6140    3.3810 c         1 MOL      0.501102
      3 O1         -3.9330   -1.4290    3.0680 o         1 MOL     -0.553677
      4 H1         -3.6340    0.9550    4.2580 hc        1 MOL      0.067993
      5 H2         -4.4780    1.4440    2.7700 hc        1 MOL      0.067993
      6 H3         -5.3790    1.2990    4.2980 hc        1 MOL      0.067993
      7 N1         -6.1790   -0.9030    3.3340 n         1 MOL     -0.413713
      8 C3         -6.7680   -2.2250    2.8560 c3        1 MOL     -0.002595
      9 C4         -6.5110   -2.4040    1.3770 c         1 MOL      0.759770
     10 O2         -6.5780   -1.5680    0.5330 o         1 MOL     -0.626012
     11 C5         -8.3390   -2.1010    3.0940 c3        1 MOL     -0.277561
     12 C6         -9.1730   -3.3860    2.6170 c         1 MOL      0.690105
     13 O3        -10.2250   -3.5810    3.2590 o         1 MOL     -0.700468
     14 O4         -8.8550   -4.1640    1.6410 o         1 MOL     -0.700468
     15 H4         -6.8040   -0.1250    3.4920 hn        1 MOL      0.276599
     16 H5         -6.3250   -3.0230    3.4430 h1        1 MOL      0.099217
     17 H6         -8.6520   -1.2170    2.5330 hc        1 MOL      0.054356
     18 H7         -8.3650   -1.8640    4.1610 hc        1 MOL      0.054356
     19 N2         -6.0190   -3.6180    1.1320 n         1 MOL     -0.613936
     20 C7         -5.5490   -4.1100   -0.0980 c3        1 MOL      0.383689
     21 C8         -4.1240   -3.5820   -0.4610 c         1 MOL      0.280908
     22 O5         -3.2130   -3.5370    0.3450 o         1 MOL     -0.497783
     23 C9         -5.5280   -5.5970   -0.2280 c3        1 MOL     -0.278292
     24 H8         -5.9180   -4.3260    1.8560 hn        1 MOL      0.294752
     25 H9         -6.1390   -3.6110   -0.8570 h1        1 MOL      0.012268
     26 H10        -6.4320   -6.0510    0.2000 hc        1 MOL      0.069181
     27 H11        -5.4750   -5.8800   -1.2830 hc        1 MOL      0.069181
     28 H12        -4.7100   -6.1040    0.2950 hc        1 MOL      0.069181
     29 N3         -3.8700   -3.2930   -1.7480 n         1 MOL     -0.238446
     30 C10        -2.5300   -3.1340   -2.3740 c3        1 MOL      0.030329
     31 C11        -1.7970   -4.5090   -2.5070 c         1 MOL      0.643188
     32 O6         -2.4690   -5.5130   -2.4530 o         1 MOL     -0.558551
     33 C12        -2.6290   -2.4480   -3.7480 c3        1 MOL     -0.292196
     34 C13        -3.6490   -1.2020   -3.8780 c         1 MOL      0.690097
     35 O7         -3.3040   -0.1980   -3.2550 o         1 MOL     -0.667909
     36 O8         -4.6550   -1.3310   -4.6000 o         1 MOL     -0.667909
     37 H13        -4.6450   -3.4530   -2.3670 hn        1 MOL      0.233716
     38 H14        -1.9110   -2.6290   -1.6300 h1        1 MOL      0.051678
     39 H15        -2.9120   -3.2000   -4.4720 hc        1 MOL      0.044306
     40 H16        -1.6260   -2.1040   -4.0180 hc        1 MOL      0.044306
     41 N4         -0.5330   -4.5480   -2.7370 n         1 MOL     -0.340289
     42 C14         0.2700   -5.7870   -2.9430 c3        1 MOL     -0.310903
     43 C15         1.7510   -5.5890   -3.1870 c         1 MOL      0.805916
     44 O9          2.4120   -6.4600   -3.7030 o         1 MOL     -0.613440
     45 H17         0.0070   -3.6930   -2.7280 hn        1 MOL      0.199680
     46 H18        -0.0700   -6.3350   -3.8180 h1        1 MOL      0.135197
     47 H19         0.2840   -6.4500   -2.0650 h1        1 MOL      0.135197
     48 N5          2.3220   -4.3900   -2.9960 n         1 MOL     -0.621366
     49 C16         3.6660   -3.9740   -3.3740 c3        1 MOL      0.256351
     50 C17         4.7330   -4.0720   -2.2500 c         1 MOL      0.277498
     51 O10         5.7180   -3.3150   -2.2400 o         1 MOL     -0.409002
     52 C18         3.5950   -2.7100   -4.3090 c3        1 MOL     -0.325085
     53 C19         2.5550   -2.8570   -5.3590 c         1 MOL      0.729057
     54 N6          1.4650   -2.1280   -5.2920 n         1 MOL     -0.821471
     55 O11         2.7430   -3.6760   -6.2110 o         1 MOL     -0.562952
     56 H20         1.7070   -3.6620   -2.6830 hn        1 MOL      0.325863
     57 H21         4.0740   -4.6900   -4.0910 h1        1 MOL      0.094963
     58 H22         4.5670   -2.5300   -4.7770 hc        1 MOL      0.087562
     59 H23         3.4470   -1.7760   -3.7410 hc        1 MOL      0.087562
     60 H24         1.4100   -1.4850   -4.5150 hn        1 MOL      0.379967
     61 H25         0.7770   -2.1480   -6.0390 hn        1 MOL      0.379967
     62 N7          4.4670   -4.9250   -1.1770 n         1 MOL     -0.283974
     63 C20         5.3270   -5.0800    0.0110 c3        1 MOL     -0.167873
     64 C21         5.6040   -3.7770    0.8690 c         1 MOL      0.439501
     65 O12         5.3570   -2.6310    0.5010 o         1 MOL     -0.314725
     66 H26         3.6240   -5.4550   -1.3240 hn        1 MOL      0.233643
     67 H27         6.3080   -5.4450   -0.2790 h1        1 MOL      0.108475
     68 H28         4.9360   -5.8760    0.6370 h1        1 MOL      0.108475
     69 N8          6.0070   -3.9600    2.1330 n         1 MOL     -0.325101
     70 C22         6.5200   -2.8680    3.1210 c3        1 MOL     -0.321760
     71 C23         5.4310   -1.7470    3.5040 c         1 MOL      0.478949
     72 O13         5.7980   -0.5740    3.8040 o         1 MOL     -0.556695
     73 C24         7.1590   -3.4740    4.4010 c3        1 MOL      0.459031
     74 C25         6.3010   -3.5710    5.6760 c3        1 MOL     -0.344503
     75 O14         7.6460   -4.7900    4.1770 oh        1 MOL     -0.628595
     76 H29         5.8680   -4.8870    2.5180 hn        1 MOL      0.212402
     77 H30         7.3950   -2.4240    2.6580 h1        1 MOL      0.183495
     78 H31         8.0720   -2.9820    4.7310 h1        1 MOL      0.045377
     79 H32         6.8790   -5.3570    4.1380 ho        1 MOL      0.369549
     80 H33         5.2960   -3.9140    5.4370 hc        1 MOL      0.090561
     81 H34         6.7670   -4.1540    6.4630 hc        1 MOL      0.090561
     82 H35         6.2290   -2.5570    6.0560 hc        1 MOL      0.090561
     83 N9          4.2110   -2.1480    3.5970 n         1 MOL     -0.459402
     84 C26         3.0850   -1.1090    3.7400 c3        1 MOL      0.199608
     85 C27         2.3990   -0.9950    2.3470 c         1 MOL      0.601864
     86 O15         2.0430   -2.0000    1.7450 o         1 MOL     -0.549953
     87 C28         2.1030   -1.6470    4.8120 c3        1 MOL      0.180089
     88 C29         2.7620   -1.9480    6.1700 c3        1 MOL     -0.102769
     89 C30         0.9310   -0.7000    5.0060 c3        1 MOL     -0.129353
     90 C31         3.5390   -0.7480    6.7840 c3        1 MOL     -0.202927
     91 H36         4.0800   -3.1490    3.5210 hn        1 MOL      0.291947
     92 H37         3.3770   -0.0910    4.0170 h1        1 MOL      0.025409
     93 H38         1.7940   -2.6000    4.3850 hc        1 MOL     -0.017870
     94 H39         3.2810   -2.8960    6.1070 hc        1 MOL      0.022746
     95 H40         1.9440   -2.1890    6.8550 hc        1 MOL      0.022746
     96 H41         1.2010    0.2530    5.4680 hc        1 MOL      0.039864
     97 H42         0.5890   -0.3830    4.0240 hc        1 MOL      0.039864
     98 H43         0.1610   -1.2280    5.5720 hc        1 MOL      0.039864
     99 H44         4.1920   -1.0440    7.6030 hc        1 MOL      0.053322
    100 H45         4.2220   -0.2850    6.0770 hc        1 MOL      0.053322
    101 H46         2.8570    0.0530    7.0700 hc        1 MOL      0.053322
    102 N10         2.2170    0.2660    1.8980 n         1 MOL     -0.776270
    103 C32         1.3910    0.5760    0.6970 c3        1 MOL      0.439205
    104 C33         2.0160    1.5830   -0.3060 c         1 MOL      0.203346
    105 O16         1.5500    1.5530   -1.4310 o         1 MOL     -0.417830
    106 C34         0.0310    1.2020    1.1670 c3        1 MOL     -0.150081
    107 C35        -0.9570    1.1550    0.0570 c         1 MOL      0.838949
    108 O17        -1.1150    0.1780   -0.6650 o         1 MOL     -0.753908
    109 O18        -1.7210    2.1240   -0.1850 o         1 MOL     -0.753908
    110 H47         2.7760    0.9870    2.3510 hn        1 MOL      0.366170
    111 H48         1.1600   -0.3460    0.1560 h1        1 MOL      0.027097
    112 H49         0.2140    2.2380    1.4290 hc        1 MOL     -0.005056
    113 H50        -0.2700    0.5850    2.0190 hc        1 MOL     -0.005056
    114 N11         2.9090    2.4870    0.1460 n         1 MOL     -0.031911
    115 C36         3.4450    3.5740   -0.6180 c3        1 MOL      0.310310
    116 C37         3.0050    5.0350   -0.3180 c         1 MOL      0.122473
    117 O19         2.7780    5.3960    0.8510 o         1 MOL     -0.445045
    118 C38         4.9560    3.4800   -0.7340 c3        1 MOL     -0.101684
    119 C39         5.6320    2.4160   -1.5780 ca        1 MOL      0.134578
    120 C40         5.7310    1.1390   -1.0250 ca        1 MOL     -0.232677
    121 C41         6.2880    2.7030   -2.7820 ca        1 MOL     -0.232677
    122 C42         6.5960    0.1720   -1.5530 ca        1 MOL     -0.047675
    123 C43         7.0190    1.6810   -3.4330 ca        1 MOL     -0.047675
    124 C44         7.2630    0.4240   -2.7760 ca        1 MOL     -0.134493
    125 H51         3.2970    2.4330    1.0840 hn        1 MOL      0.103890
    126 H52         3.1020    3.3890   -1.6430 h1        1 MOL     -0.103889
    127 H53         5.4110    3.5730    0.2540 hc        1 MOL      0.040345
    128 H54         5.3740    4.4200   -1.0820 hc        1 MOL      0.040345
    129 H55         5.2360    0.9310   -0.0840 ha        1 MOL      0.105839
    130 H56         6.1700    3.7100   -3.1690 ha        1 MOL      0.105839
    131 H57         6.7890   -0.7300   -0.9820 ha        1 MOL      0.084045
    132 H58         7.5200    1.8870   -4.3620 ha        1 MOL      0.084045
    133 H59         8.0420   -0.1880   -3.1960 ha        1 MOL      0.106333
    134 N12         2.8340    5.9240   -1.3260 n         1 MOL      0.113347
    135 C45         2.1790    7.2260   -1.1870 c3        1 MOL     -0.151589
    136 C46         0.9740    7.5210   -0.1860 c         1 MOL      0.428552
    137 O20         0.9060    8.5840    0.4390 o         1 MOL     -0.508164
    138 C47         1.8580    7.8340   -2.5710 c3        1 MOL      0.162123
    139 C48         3.0050    7.2110   -3.3470 c3        1 MOL     -0.042127
    140 C49         3.2590    5.7800   -2.7420 c3        1 MOL     -0.195650
    141 H60         3.0630    7.8270   -0.9230 h1        1 MOL      0.074836
    142 H61         0.9130    7.4250   -2.9290 hc        1 MOL     -0.007075
    143 H62         1.8920    8.9120   -2.7140 hc        1 MOL     -0.007075
    144 H63         2.6350    7.0850   -4.3660 hc        1 MOL      0.019461
    145 H64         3.9120    7.8150   -3.3020 hc        1 MOL      0.019461
    146 H65         2.5420    5.1450   -3.2710 h1        1 MOL      0.101956
    147 H66         4.2850    5.4670   -2.9280 h1        1 MOL      0.101956
    148 N13         0.0400    6.5580   -0.0970 n         1 MOL     -0.340051
    149 C50        -1.2180    6.6770    0.6840 c3        1 MOL     -0.045964
    150 C51        -0.9710    6.4970    2.2350 c         1 MOL      0.369184
    151 O21        -1.6840    6.8580    3.1790 o         1 MOL     -0.519733
    152 C52        -2.2110    5.5660    0.2550 c3        1 MOL      0.102095
    153 C53        -3.6620    6.0920    0.0950 c3        1 MOL     -0.010475
    154 C54        -4.6680    4.9120   -0.3530 c         1 MOL      0.678957
    155 O22        -4.3170    4.0500   -1.2130 o         1 MOL     -0.708778
    156 O23        -5.7910    4.8650    0.2250 o         1 MOL     -0.708778
    157 H67         0.2520    5.6710   -0.5240 hn        1 MOL      0.267785
    158 H68        -1.6880    7.6440    0.5560 h1        1 MOL      0.109038
    159 H69        -2.2160    4.8190    1.0590 hc        1 MOL     -0.012759
    160 H70        -1.9030    5.0620   -0.6560 hc        1 MOL     -0.012759
    161 H71        -3.4980    6.8170   -0.7050 hc        1 MOL     -0.028203
    162 H72        -3.9650    6.5810    1.0160 hc        1 MOL     -0.028203
    163 N14         0.2140    5.9470    2.6220 n         1 MOL     -0.019854
    164 C55         0.5380    5.6100    4.0100 c3        1 MOL     -0.247082
    165 H73         0.5190    6.5160    4.6170 h1        1 MOL      0.091832
    166 H74        -0.1950    4.9000    4.3930 h1        1 MOL      0.091832
    167 H75         1.5330    5.1660    4.0530 h1        1 MOL      0.091832
    168 H76         0.8450    5.7500    1.8530 hn        1 MOL      0.080260
    169 Ca1        -3.8410    1.5510   -1.5030 Ca        1 MOL      1.812337
    170 O24        -5.2120    1.9750   -3.7540 oh        1 MOL     -0.923174
    171 H77        -5.7200    1.1660   -3.7490 ho        1 MOL      0.436651
    172 H78        -5.4390    2.3970   -4.5870 ho        1 MOL      0.436651
    173 O25        -2.3030    2.8480   -3.3610 oh        1 MOL     -0.923174
    174 O26        -5.4890    2.2350    0.3970 oh        1 MOL     -0.923174
    175 H79        -2.9060    3.3450   -3.9230 ho        1 MOL      0.436651
    176 H80        -5.7470    3.1490    0.4030 ho        1 MOL      0.436651
    177 H81        -1.4410    2.9950   -3.7540 ho        1 MOL      0.436651
    178 H82        -6.2500    1.7620    0.7350 ho        1 MOL      0.436651
    179 O27        -3.7120   -0.4600    0.4050 oh        1 MOL     -0.923174
    180 H83        -2.8440   -0.8090    0.2210 ho        1 MOL      0.436651
    181 H84        -3.9770   -0.8990    1.2220 ho        1 MOL      0.436651
    182 O28        -6.2470   -0.2020   -1.8210 oh        1 MOL     -0.923174
    183 H85        -6.0930   -0.5770   -0.9600 ho        1 MOL      0.436651
    184 H86        -7.1610   -0.4490   -2.0230 ho        1 MOL      0.436651
@<TRIPOS>BOND
     1    1    2 1   
     2    1    4 1   
     3    1    5 1   
     4    1    6 1   
     5    2    3 2   
     6    2    7 1   
     7    7    8 1   
     8    7   15 1   
     9    8    9 1   
    10    8   11 1   
    11    8   16 1   
    12    9   10 2   
    13    9   19 1   
    14   11   12 1   
    15   11   17 1   
    16   11   18 1   
    17   12   13 1   
    18   12   14 1   
    19   19   20 1   
    20   19   24 1   
    21   20   21 1   
    22   20   23 1   
    23   20   25 1   
    24   21   22 2   
    25   21   29 1   
    26   23   26 1   
    27   23   27 1   
    28   23   28 1   
    29   29   30 1   
    30   29   37 1   
    31   30   31 1   
    32   30   33 1   
    33   30   38 1   
    34   31   32 2   
    35   31   41 1   
    36   33   34 1   
    37   33   39 1   
    38   33   40 1   
    39   34   35 1   
    40   34   36 1   
    41   41   42 1   
    42   41   45 1   
    43   42   43 1   
    44   42   46 1   
    45   42   47 1   
    46   43   44 2   
    47   43   48 1   
    48   48   49 1   
    49   48   56 1   
    50   49   50 1   
    51   49   52 1   
    52   49   57 1   
    53   50   51 2   
    54   50   62 1   
    55   52   53 1   
    56   52   58 1   
    57   52   59 1   
    58   53   54 1   
    59   53   55 2   
    60   54   60 1   
    61   54   61 1   
    62   62   63 1   
    63   62   66 1   
    64   63   64 1   
    65   63   67 1   
    66   63   68 1   
    67   64   65 2   
    68   64   69 1   
    69   69   70 1   
    70   69   76 1   
    71   70   71 1   
    72   70   73 1   
    73   70   77 1   
    74   71   72 2   
    75   71   83 1   
    76   73   74 1   
    77   73   75 1   
    78   73   78 1   
    79   74   80 1   
    80   74   81 1   
    81   74   82 1   
    82   75   79 1   
    83   83   84 1   
    84   83   91 1   
    85   84   85 1   
    86   84   87 1   
    87   84   92 1   
    88   85   86 2   
    89   85  102 1   
    90   87   88 1   
    91   87   89 1   
    92   87   93 1   
    93   88   90 1   
    94   88   94 1   
    95   88   95 1   
    96   89   96 1   
    97   89   97 1   
    98   89   98 1   
    99   90   99 1   
   100   90  100 1   
   101   90  101 1   
   102  102  103 1   
   103  102  110 1   
   104  103  104 1   
   105  103  106 1   
   106  103  111 1   
   107  104  105 2   
   108  104  114 1   
   109  106  107 1   
   110  106  112 1   
   111  106  113 1   
   112  107  108 1   
   113  107  109 1   
   114  114  115 1   
   115  114  125 1   
   116  115  116 1   
   117  115  118 1   
   118  115  126 1   
   119  116  117 2   
   120  116  134 1   
   121  118  119 1   
   122  118  127 1   
   123  118  128 1   
   124  119  120 ar  
   125  119  121 ar  
   126  120  122 ar  
   127  120  129 1   
   128  121  123 ar  
   129  121  130 1   
   130  122  124 ar  
   131  122  131 1   
   132  123  124 ar  
   133  123  132 1   
   134  124  133 1   
   135  134  135 1   
   136  134  140 1   
   137  135  136 1   
   138  135  138 1   
   139  135  141 1   
   140  136  137 2   
   141  136  148 1   
   142  138  139 1   
   143  138  142 1   
   144  138  143 1   
   145  139  140 1   
   146  139  144 1   
   147  139  145 1   
   148  140  146 1   
   149  140  147 1   
   150  148  149 1   
   151  148  157 1   
   152  149  150 1   
   153  149  152 1   
   154  149  158 1   
   155  150  151 2   
   156  150  163 1   
   157  152  153 1   
   158  152  159 1   
   159  152  160 1   
   160  153  154 1   
   161  153  161 1   
   162  153  162 1   
   163  154  155 1   
   164  154  156 1   
   165  163  164 1   
   166  163  168 1   
   167  164  165 1   
   168  164  166 1   
   169  164  167 1   
   170  170  171 1   
   171  170  172 1   
   172  173  175 1   
   173  173  177 1   
   174  174  176 1   
   175  174  178 1   
   176  179  180 1   
   177  179  181 1   
   178  182  183 1   
   179  182  184 1   
@<TRIPOS>SUBSTRUCTURE
     1 MOL         1 TEMP              0 ****  ****    0 ROOT
