@<TRIPOS>MOLECULE
MOL
  189   185     1     0     0
SMALL
resp


@<TRIPOS>ATOM
      1 C1          9.4010    0.7890    2.5190 c3        1 MOL     -0.485919
      2 C2          8.2930    0.3360    1.4690 c         1 MOL      0.696311
      3 O1          7.1270    0.1900    1.8250 o         1 MOL     -0.656881
      4 H1          9.1130    0.4550    3.5160 hc        1 MOL      0.122140
      5 H2         10.3590    0.3440    2.2510 hc        1 MOL      0.122140
      6 H3          9.4890    1.8750    2.5110 hc        1 MOL      0.122140
      7 N1          8.7190    0.1460    0.2340 n         1 MOL     -0.419027
      8 C3          7.8350    0.1740   -1.0210 c3        1 MOL      0.043469
      9 C4          7.0970   -1.2090   -1.2990 c         1 MOL      0.269617
     10 O2          7.0830   -1.6570   -2.4930 o         1 MOL     -0.415709
     11 C5          8.6990    0.6020   -2.2420 c3        1 MOL     -0.092938
     12 C6         10.0030   -0.2640   -2.3460 c         1 MOL      0.645821
     13 O3         10.7030   -0.4620   -1.3780 o         1 MOL     -0.623167
     14 O4         10.1850   -0.7450   -3.4540 o         1 MOL     -0.623167
     15 H4          9.7050    0.0390    0.0910 hn        1 MOL      0.182475
     16 H5          7.0450    0.9010   -0.8540 h1        1 MOL      0.082028
     17 H6          8.8600    1.6750   -2.2150 hc        1 MOL      0.044737
     18 H7          8.0970    0.5250   -3.1430 hc        1 MOL      0.044737
     19 N2          6.7150   -1.9830   -0.2500 n         1 MOL     -0.084324
     20 C7          6.2840   -3.4020   -0.3290 c3        1 MOL      0.056301
     21 C8          4.8610   -3.4540   -0.9320 c         1 MOL      0.266307
     22 O5          4.6230   -4.2000   -1.8650 o         1 MOL     -0.514350
     23 C9          6.4750   -4.1380    1.0410 c3        1 MOL     -0.068569
     24 C10         7.9390   -4.1180    1.4690 c3        1 MOL      0.073918
     25 C11         8.1450   -4.1570    2.9920 c3        1 MOL     -0.332928
     26 C12         9.6480   -3.9340    3.3010 c3        1 MOL      0.267827
     27 N3          9.8940   -4.0640    4.7380 n4        1 MOL     -0.481755
     28 H8          6.8230   -1.5350    0.6410 hn        1 MOL      0.176984
     29 H9          6.9560   -3.9210   -1.0130 h1        1 MOL      0.084521
     30 H10         6.0730   -5.1480    0.9460 hc        1 MOL      0.043655
     31 H11         5.8380   -3.6040    1.7570 hc        1 MOL      0.043655
     32 H12         8.4550   -3.2220    1.1200 hc        1 MOL      0.025608
     33 H13         8.5220   -4.8180    0.8860 hc        1 MOL      0.025608
     34 H14         7.9020   -5.1760    3.3160 hc        1 MOL      0.085716
     35 H15         7.4370   -3.4210    3.3850 hc        1 MOL      0.085716
     36 H16         9.9100   -2.9450    2.9090 hx        1 MOL      0.041961
     37 H17        10.2300   -4.6360    2.7080 hx        1 MOL      0.041961
     38 H18        10.8420   -3.8940    5.0600 hn        1 MOL      0.345447
     39 H19         9.2710   -3.4290    5.2180 hn        1 MOL      0.345447
     40 H20         9.6740   -5.0220    4.9910 hn        1 MOL      0.345447
     41 N4          3.9030   -2.5940   -0.6940 n         1 MOL     -0.106979
     42 C13         3.8020   -1.6490    0.4300 c3        1 MOL     -0.007121
     43 C14         3.8600   -0.2300   -0.1180 c         1 MOL      0.238195
     44 O6          4.1440    0.0220   -1.2910 o         1 MOL     -0.417564
     45 C15         2.5730   -2.0940    1.3490 c3        1 MOL     -0.321697
     46 C16         1.2000   -2.4650    0.7080 c         1 MOL      0.579381
     47 O7          0.9640   -2.0960   -0.4590 o         1 MOL     -0.539301
     48 O8          0.3310   -3.0700    1.3920 o         1 MOL     -0.539301
     49 H21         3.0080   -2.7490   -1.1310 hn        1 MOL      0.273952
     50 H22         4.6990   -1.6650    1.0450 h1        1 MOL      0.081597
     51 H23         2.5120   -1.3580    2.1470 hc        1 MOL      0.080179
     52 H24         2.9910   -3.0240    1.7620 hc        1 MOL      0.080179
     53 N5          3.5790    0.7040    0.7310 n         1 MOL     -0.225234
     54 C17         3.5810    2.1290    0.4490 c3        1 MOL     -0.058526
     55 C18         2.4570    2.5530   -0.4190 c         1 MOL      0.296086
     56 O9          1.5290    1.7580   -0.7290 o         1 MOL     -0.344078
     57 H25         3.3390    0.3570    1.6520 hn        1 MOL      0.239088
     58 H26         4.4830    2.2850   -0.1460 h1        1 MOL      0.099570
     59 H27         3.6550    2.7590    1.3390 h1        1 MOL      0.099570
     60 N6          2.4320    3.7970   -0.9210 n         1 MOL     -0.189972
     61 C19         1.2850    4.4810   -1.5710 c3        1 MOL     -0.191283
     62 C20         1.3850    6.0570   -1.2590 c         1 MOL      0.578048
     63 O10         2.3960    6.5250   -0.8450 o         1 MOL     -0.551395
     64 C21         1.3590    4.2220   -3.1060 c3        1 MOL     -0.066391
     65 C22         1.3230    2.7280   -3.6240 c         1 MOL      0.622544
     66 O11         2.2010    2.3780   -4.4400 o         1 MOL     -0.648252
     67 O12         0.1960    2.1390   -3.3470 o         1 MOL     -0.648252
     68 H28         3.2700    4.3380   -0.7420 hn        1 MOL      0.243501
     69 H29         0.3490    4.1780   -1.1110 h1        1 MOL     -0.014514
     70 H30         2.1580    4.8190   -3.5400 hc        1 MOL      0.053591
     71 H31         0.4860    4.6650   -3.5950 hc        1 MOL      0.053591
     72 N7          0.3800    6.8520   -1.4350 n         1 MOL     -0.436851
     73 C23        -1.0310    6.4220   -1.7340 c3        1 MOL     -0.107148
     74 C24        -1.6990    6.0260   -0.4220 c         1 MOL      0.671438
     75 O13        -1.3520    6.5430    0.6380 o         1 MOL     -0.548283
     76 H32         0.4870    7.8200   -1.1670 hn        1 MOL      0.327280
     77 H33        -1.0680    5.5870   -2.4420 h1        1 MOL      0.081672
     78 H34        -1.4790    7.3640   -2.0420 h1        1 MOL      0.081672
     79 N8         -2.7650    5.2340   -0.4760 n         1 MOL     -0.516433
     80 C25        -3.5640    4.8600    0.7020 c3        1 MOL      0.067674
     81 C26        -2.9520    3.7830    1.5850 c         1 MOL      0.371055
     82 O14        -3.6220    3.1440    2.3870 o         1 MOL     -0.481235
     83 C27        -4.9960    4.3600    0.2890 c3        1 MOL      0.286059
     84 C28        -4.9950    3.0960   -0.6360 c3        1 MOL     -0.044391
     85 O15        -5.7250    5.4350   -0.4220 oh        1 MOL     -0.641384
     86 H35        -3.0720    4.9860   -1.4130 hn        1 MOL      0.301673
     87 H36        -3.5870    5.7320    1.3660 h1        1 MOL      0.115685
     88 H37        -5.5380    4.1090    1.1940 h1        1 MOL     -0.018246
     89 H38        -6.6180    5.1050   -0.5440 ho        1 MOL      0.405992
     90 H39        -4.4100    3.1610   -1.5510 hc        1 MOL      0.010500
     91 H40        -4.6110    2.1810   -0.1820 hc        1 MOL      0.010500
     92 H41        -6.0380    2.9480   -0.9200 hc        1 MOL      0.010500
     93 N9         -1.6520    3.5950    1.5570 n         1 MOL     -0.310416
     94 C29        -0.8620    2.6510    2.3930 c3        1 MOL     -0.055869
     95 C30        -1.0240    1.1790    1.8960 c         1 MOL      0.821176
     96 O16        -0.6840    0.7980    0.8050 o         1 MOL     -0.695315
     97 C31         0.6700    3.0000    2.4890 c3        1 MOL     -0.203413
     98 C32         0.8770    4.4470    2.9550 c3        1 MOL      0.244123
     99 C33         1.4280    2.1160    3.5320 c3        1 MOL     -0.541587
    100 C34         2.2770    5.0380    2.7660 c3        1 MOL     -0.320056
    101 H42        -1.1130    4.1030    0.8680 hn        1 MOL      0.315107
    102 H43        -1.2770    2.6500    3.3940 h1        1 MOL      0.073615
    103 H44         1.1370    2.8460    1.5200 hc        1 MOL      0.145595
    104 H45         0.6070    4.5760    3.9970 hc        1 MOL     -0.012866
    105 H46         0.1590    5.1490    2.5250 hc        1 MOL     -0.012866
    106 H47         1.1880    1.0860    3.2440 hc        1 MOL      0.155082
    107 H48         2.5130    2.2300    3.5590 hc        1 MOL      0.155082
    108 H49         1.0240    2.3320    4.5280 hc        1 MOL      0.155082
    109 H50         2.2220    5.9910    3.2890 hc        1 MOL      0.075705
    110 H51         3.0980    4.4410    3.1660 hc        1 MOL      0.075705
    111 H52         2.5340    5.0410    1.7020 hc        1 MOL      0.075705
    112 N10        -1.7550    0.4440    2.7410 n         1 MOL     -0.294658
    113 C35        -2.1530   -0.9720    2.4590 c3        1 MOL     -0.560828
    114 C36        -3.6150   -1.0960    1.9940 c         1 MOL      0.976398
    115 O17        -4.0940   -2.1450    1.6800 o         1 MOL     -0.693945
    116 C37        -1.8540   -1.9220    3.5890 c3        1 MOL      0.310314
    117 C38        -2.3440   -1.4680    4.9200 c3        1 MOL     -0.164473
    118 O18        -0.4340   -1.9810    3.7830 oh        1 MOL     -0.561047
    119 H53        -1.9140    0.8650    3.6430 hn        1 MOL      0.231930
    120 H54        -1.4930   -1.3850    1.6980 h1        1 MOL      0.402275
    121 H55        -2.3230   -2.8810    3.3440 h1        1 MOL      0.031654
    122 H56        -0.0320   -2.3400    2.9900 ho        1 MOL      0.266575
    123 H57        -1.7960   -0.5350    5.0680 hc        1 MOL      0.036255
    124 H58        -3.4190   -1.3190    4.7940 hc        1 MOL      0.036255
    125 H59        -2.1570   -2.1140    5.7790 hc        1 MOL      0.036255
    126 N11        -4.4970   -0.0430    1.9750 n         1 MOL     -0.221720
    127 C39        -5.9740   -0.0660    1.8410 c3        1 MOL     -0.345533
    128 C40        -6.2470   -0.7150    0.4820 c         1 MOL      0.367009
    129 O19        -5.8290   -0.2430   -0.5880 o         1 MOL     -0.433256
    130 C41        -6.5260    1.3340    1.8660 c3        1 MOL      0.451371
    131 C42        -8.0440    1.3370    1.9180 c3        1 MOL     -0.379697
    132 O20        -6.0800    2.0380    3.0430 oh        1 MOL     -0.586139
    133 H60        -4.1300    0.8800    2.1590 hn        1 MOL      0.084748
    134 H61        -6.3340   -0.6830    2.6700 h1        1 MOL      0.154012
    135 H62        -6.3110    2.0090    1.0310 h1        1 MOL      0.036246
    136 H63        -5.2830    2.5140    2.7750 ho        1 MOL      0.331196
    137 H64        -8.5740    2.2590    1.7300 hc        1 MOL      0.093933
    138 H65        -8.4490    0.6190    1.2080 hc        1 MOL      0.093933
    139 H66        -8.3880    0.8930    2.8570 hc        1 MOL      0.093933
    140 N12        -6.8230   -1.9450    0.6120 n         1 MOL     -0.189734
    141 C43        -7.1960   -2.9160   -0.4440 c3        1 MOL      0.058184
    142 C44        -6.1340   -2.9890   -1.5730 c         1 MOL      0.463103
    143 O21        -6.4500   -2.7550   -2.7360 o         1 MOL     -0.488509
    144 C45        -8.6780   -2.7370   -0.8370 c3        1 MOL     -0.108550
    145 C46        -9.6030   -3.3240    0.1930 c3        1 MOL     -0.022554
    146 C47       -10.9420   -3.4320   -0.3850 c3        1 MOL      0.027477
    147 C48       -11.9930   -4.2670    0.4450 c3        1 MOL      0.082132
    148 N13       -13.3670   -4.1960   -0.1430 n4        1 MOL     -0.246836
    149 H67        -6.9720   -2.2990    1.5440 hn        1 MOL      0.192519
    150 H68        -7.0910   -3.9110   -0.0260 h1        1 MOL      0.048202
    151 H69        -8.8140   -3.2780   -1.7730 hc        1 MOL      0.062771
    152 H70        -8.9340   -1.7070   -1.0780 hc        1 MOL      0.062771
    153 H71        -9.5100   -2.5700    0.9760 hc        1 MOL      0.001686
    154 H72        -9.1930   -4.2980    0.4830 hc        1 MOL      0.001686
    155 H73       -10.8600   -3.9240   -1.3520 hc        1 MOL      0.020225
    156 H74       -11.3410   -2.4360   -0.5880 hc        1 MOL      0.020225
    157 H75       -11.9870   -3.8120    1.4300 hx        1 MOL      0.053698
    158 H76       -11.7690   -5.3170    0.6010 hx        1 MOL      0.053698
    159 H77       -14.0580   -4.6400    0.4450 hn        1 MOL      0.237389
    160 H78       -13.6840   -3.2360   -0.1710 hn        1 MOL      0.237389
    161 H79       -13.4160   -4.6530   -1.0400 hn        1 MOL      0.237389
    162 N14        -4.8670   -3.2190   -1.1170 n         1 MOL     -0.494870
    163 C49        -3.6720   -2.8040   -1.8160 c3        1 MOL      0.140233
    164 C50        -2.4960   -2.5910   -0.8490 c         1 MOL      0.357442
    165 O22        -2.0580   -1.4720   -0.7550 o         1 MOL     -0.652566
    166 C51        -3.2600   -3.7460   -2.9820 c3        1 MOL     -0.264596
    167 C52        -1.8960   -3.6330   -3.6770 c3        1 MOL      0.170890
    168 C53        -1.7180   -2.2820   -4.3480 c         1 MOL      0.584979
    169 O23        -1.2720   -1.3740   -3.6090 o         1 MOL     -0.645026
    170 O24        -1.9010   -2.1110   -5.6060 o         1 MOL     -0.645026
    171 H80        -4.7300   -3.3290   -0.1190 hn        1 MOL      0.296359
    172 H81        -3.9380   -1.8220   -2.2000 h1        1 MOL      0.125378
    173 H82        -4.0100   -3.6020   -3.7530 hc        1 MOL      0.077277
    174 H83        -3.3830   -4.7800   -2.6590 hc        1 MOL      0.077277
    175 H84        -1.9900   -4.4040   -4.4460 hc        1 MOL     -0.036933
    176 H85        -1.1090   -3.8930   -2.9750 hc        1 MOL     -0.036933
    177 N15        -2.1000   -3.5860   -0.0320 n         1 MOL     -0.073294
    178 C54        -2.3180   -5.0240   -0.1970 c3        1 MOL     -0.193706
    179 H86        -2.0710   -5.3130   -1.2180 h1        1 MOL      0.074201
    180 H87        -1.6830   -5.5710    0.4990 h1        1 MOL      0.074201
    181 H88        -3.3640   -5.2590    0.0030 h1        1 MOL      0.074201
    182 H89        -1.3740   -3.3480    0.6350 hn        1 MOL      0.144475
    183 Ca1        -0.1350   -0.0610   -1.7630 Ca        1 MOL      1.587057
    184 O25        -2.2220    1.3840   -1.6110 oh        1 MOL     -0.924252
    185 H90        -3.1530    1.1540   -1.6490 ho        1 MOL      0.435157
    186 H91        -2.1230    2.1000   -2.2330 ho        1 MOL      0.435157
    187 O26         2.2650   -1.0690   -2.8480 oh        1 MOL     -0.924252
    188 H92         3.0710   -0.7440   -2.4430 ho        1 MOL      0.435157
    189 H93         2.5250   -1.2910   -3.7400 ho        1 MOL      0.435157
@<TRIPOS>BOND
     1    1    2 1   
     2    1    4 1   
     3    1    5 1   
     4    1    6 1   
     5    2    3 2   
     6    2    7 1   
     7    7    8 1   
     8    7   15 1   
     9    8    9 1   
    10    8   11 1   
    11    8   16 1   
    12    9   10 2   
    13    9   19 1   
    14   11   12 1   
    15   11   17 1   
    16   11   18 1   
    17   12   13 1   
    18   12   14 1   
    19   19   20 1   
    20   19   28 1   
    21   20   21 1   
    22   20   23 1   
    23   20   29 1   
    24   21   22 2   
    25   21   41 1   
    26   23   24 1   
    27   23   30 1   
    28   23   31 1   
    29   24   25 1   
    30   24   32 1   
    31   24   33 1   
    32   25   26 1   
    33   25   34 1   
    34   25   35 1   
    35   26   27 1   
    36   26   36 1   
    37   26   37 1   
    38   27   38 1   
    39   27   39 1   
    40   27   40 1   
    41   41   42 1   
    42   41   49 1   
    43   42   43 1   
    44   42   45 1   
    45   42   50 1   
    46   43   44 2   
    47   43   53 1   
    48   45   46 1   
    49   45   51 1   
    50   45   52 1   
    51   46   47 1   
    52   46   48 1   
    53   53   54 1   
    54   53   57 1   
    55   54   55 1   
    56   54   58 1   
    57   54   59 1   
    58   55   56 2   
    59   55   60 1   
    60   60   61 1   
    61   60   68 1   
    62   61   62 1   
    63   61   64 1   
    64   61   69 1   
    65   62   63 2   
    66   62   72 1   
    67   64   65 1   
    68   64   70 1   
    69   64   71 1   
    70   65   66 1   
    71   65   67 1   
    72   72   73 1   
    73   72   76 1   
    74   73   74 1   
    75   73   77 1   
    76   73   78 1   
    77   74   75 2   
    78   74   79 1   
    79   79   80 1   
    80   79   86 1   
    81   80   81 1   
    82   80   83 1   
    83   80   87 1   
    84   81   82 2   
    85   81   93 1   
    86   83   84 1   
    87   83   85 1   
    88   83   88 1   
    89   84   90 1   
    90   84   91 1   
    91   84   92 1   
    92   85   89 1   
    93   93   94 1   
    94   93  101 1   
    95   94   95 1   
    96   94   97 1   
    97   94  102 1   
    98   95   96 2   
    99   95  112 1   
   100   97   98 1   
   101   97   99 1   
   102   97  103 1   
   103   98  100 1   
   104   98  104 1   
   105   98  105 1   
   106   99  106 1   
   107   99  107 1   
   108   99  108 1   
   109  100  109 1   
   110  100  110 1   
   111  100  111 1   
   112  112  113 1   
   113  112  119 1   
   114  113  114 1   
   115  113  116 1   
   116  113  120 1   
   117  114  115 2   
   118  114  126 1   
   119  116  117 1   
   120  116  118 1   
   121  116  121 1   
   122  117  123 1   
   123  117  124 1   
   124  117  125 1   
   125  118  122 1   
   126  126  127 1   
   127  126  133 1   
   128  127  128 1   
   129  127  130 1   
   130  127  134 1   
   131  128  129 2   
   132  128  140 1   
   133  130  131 1   
   134  130  132 1   
   135  130  135 1   
   136  131  137 1   
   137  131  138 1   
   138  131  139 1   
   139  132  136 1   
   140  140  141 1   
   141  140  149 1   
   142  141  142 1   
   143  141  144 1   
   144  141  150 1   
   145  142  143 2   
   146  142  162 1   
   147  144  145 1   
   148  144  151 1   
   149  144  152 1   
   150  145  146 1   
   151  145  153 1   
   152  145  154 1   
   153  146  147 1   
   154  146  155 1   
   155  146  156 1   
   156  147  148 1   
   157  147  157 1   
   158  147  158 1   
   159  148  159 1   
   160  148  160 1   
   161  148  161 1   
   162  162  163 1   
   163  162  171 1   
   164  163  164 1   
   165  163  166 1   
   166  163  172 1   
   167  164  165 2   
   168  164  177 1   
   169  166  167 1   
   170  166  173 1   
   171  166  174 1   
   172  167  168 1   
   173  167  175 1   
   174  167  176 1   
   175  168  169 1   
   176  168  170 1   
   177  177  178 1   
   178  177  182 1   
   179  178  179 1   
   180  178  180 1   
   181  178  181 1   
   182  184  185 1   
   183  184  186 1   
   184  187  188 1   
   185  187  189 1   
@<TRIPOS>SUBSTRUCTURE
     1 MOL         1 TEMP              0 ****  ****    0 ROOT
