@<TRIPOS>MOLECULE
MOL
  185   180     1     0     0
SMALL
resp


@<TRIPOS>ATOM
      1 C1         -4.1060    2.4480   -2.0510 c3        1 MOL     -0.325380
      2 C2         -5.3330    2.2520   -1.0630 c         1 MOL      0.813263
      3 O1         -5.1790    2.0740    0.1290 o         1 MOL     -0.542475
      4 H1         -3.6920    1.4740   -2.3130 hc        1 MOL      0.081235
      5 H2         -4.4430    2.9530   -2.9560 hc        1 MOL      0.081235
      6 H3         -3.3380    3.0490   -1.5640 hc        1 MOL      0.081235
      7 N1         -6.6030    2.3320   -1.5990 n         1 MOL     -0.722285
      8 C3         -7.8550    2.3920   -0.7700 c3        1 MOL      0.405566
      9 C4         -8.3880    1.1020   -0.1100 c         1 MOL      0.380041
     10 O2         -9.1130    1.1910    0.8780 o         1 MOL     -0.510180
     11 C5         -7.8400    3.5600    0.1850 c3        1 MOL     -0.390870
     12 C6         -7.6500    4.9270   -0.4280 c         1 MOL      0.761056
     13 O3         -7.1340    5.8700    0.2030 o         1 MOL     -0.687413
     14 O4         -7.8480    5.0080   -1.6290 o         1 MOL     -0.687413
     15 H4         -6.7140    2.6320   -2.5580 hn        1 MOL      0.328899
     16 H5         -8.6630    2.5450   -1.4860 h1        1 MOL     -0.012341
     17 H6         -7.0280    3.4110    0.8930 hc        1 MOL      0.087259
     18 H7         -8.8290    3.6020    0.6500 hc        1 MOL      0.087259
     19 N2         -8.0790   -0.0770   -0.6600 n         1 MOL     -0.351785
     20 C7         -8.3800   -1.4910   -0.2410 c3        1 MOL      0.245026
     21 C8         -7.1670   -2.4290   -0.0970 c         1 MOL      0.421362
     22 O5         -7.2970   -3.6340    0.0590 o         1 MOL     -0.552888
     23 C9         -9.4840   -2.2900   -1.1180 c3        1 MOL     -0.160284
     24 C10       -10.8760   -1.5560   -1.2030 c3        1 MOL     -0.005486
     25 C11       -11.5900   -1.6090    0.1430 c3        1 MOL      0.074969
     26 C12       -13.0070   -1.0970   -0.0810 c3        1 MOL     -0.009558
     27 N3        -13.6000   -0.7320    1.2280 n4        1 MOL     -0.181097
     28 H8         -7.5120    0.0380   -1.4930 hn        1 MOL      0.177753
     29 H9         -8.9100   -1.3270    0.6990 h1        1 MOL      0.010537
     30 H10        -9.5990   -3.2030   -0.5310 hc        1 MOL      0.049928
     31 H11        -9.1130   -2.4860   -2.1180 hc        1 MOL      0.049928
     32 H12       -11.5010   -2.0500   -1.9450 hc        1 MOL      0.023688
     33 H13       -10.8000   -0.5300   -1.5580 hc        1 MOL      0.023688
     34 H14       -10.9890   -1.0540    0.8580 hc        1 MOL      0.008770
     35 H15       -11.5840   -2.6220    0.5340 hc        1 MOL      0.008770
     36 H16       -13.5900   -1.8800   -0.5710 hx        1 MOL      0.069769
     37 H17       -12.9450   -0.2660   -0.7850 hx        1 MOL      0.069769
     38 H18       -13.4660   -1.5030    1.8670 hn        1 MOL      0.248112
     39 H19       -13.1720    0.0690    1.6670 hn        1 MOL      0.248112
     40 H20       -14.6050   -0.6880    1.0800 hn        1 MOL      0.248112
     41 N4         -5.9980   -1.8580   -0.0480 n         1 MOL     -0.219495
     42 C13        -4.7230   -2.5690    0.2080 c3        1 MOL      0.065221
     43 C14        -4.1200   -2.2880    1.5510 c         1 MOL      0.441446
     44 O6         -3.9710   -1.1580    1.9930 o         1 MOL     -0.458522
     45 C15        -3.8230   -2.2540   -0.9350 c3        1 MOL     -0.196163
     46 C16        -2.5090   -3.0790   -0.9120 c         1 MOL      0.971676
     47 O7         -2.4090   -4.0670   -1.6470 o         1 MOL     -0.856704
     48 O8         -1.6360   -2.6720   -0.1290 o         1 MOL     -0.856704
     49 H21        -5.9120   -0.8660   -0.2320 hn        1 MOL      0.124567
     50 H22        -4.9330   -3.6380    0.1460 h1        1 MOL      0.057316
     51 H23        -3.4610   -1.2280   -0.8670 hc        1 MOL      0.047126
     52 H24        -4.2740   -2.3810   -1.9180 hc        1 MOL      0.047126
     53 N5         -3.4750   -3.3230    2.1180 n         1 MOL     -0.237744
     54 C17        -2.9250   -3.2610    3.4490 c3        1 MOL     -0.180378
     55 C18        -1.7050   -2.3300    3.6180 c         1 MOL      0.480395
     56 O9         -1.5370   -1.7600    4.7500 o         1 MOL     -0.534384
     57 H25        -3.5920   -4.2490    1.7280 hn        1 MOL      0.193856
     58 H26        -2.4340   -4.2140    3.6790 h1        1 MOL      0.116162
     59 H27        -3.5900   -3.0240    4.2840 h1        1 MOL      0.116162
     60 N6         -0.8390   -2.1710    2.5900 n         1 MOL     -0.411460
     61 C19         0.2520   -1.2360    2.6560 c3        1 MOL      0.111205
     62 C20        -0.1790    0.2430    2.4190 c         1 MOL      0.452539
     63 O10         0.6960    1.1400    2.5360 o         1 MOL     -0.528598
     64 C21         1.3140   -1.7470    1.7450 c3        1 MOL     -0.275575
     65 C22         1.6470   -3.1670    1.9400 c         1 MOL      0.548683
     66 N7          2.2340   -3.4840    3.0860 n         1 MOL     -0.643084
     67 O11         1.4760   -4.0100    1.0180 o         1 MOL     -0.515192
     68 H28        -1.0860   -2.4840    1.6620 hn        1 MOL      0.268782
     69 H29         0.7400   -1.3000    3.6270 h1        1 MOL      0.055829
     70 H30         2.2000   -1.1030    1.8010 hc        1 MOL      0.136298
     71 H31         1.0230   -1.6630    0.6970 hc        1 MOL      0.136298
     72 H32         2.5990   -2.7250    3.6420 hn        1 MOL      0.337677
     73 H33         2.7460   -4.3530    3.1680 hn        1 MOL      0.337677
     74 N8         -1.4500    0.4850    2.0940 n         1 MOL     -0.281055
     75 C23        -1.8910    1.8630    1.8150 c3        1 MOL     -0.112798
     76 C24        -0.9540    2.6140    0.7280 c         1 MOL      0.524925
     77 O12        -0.7700    2.1760   -0.3970 o         1 MOL     -0.536733
     78 H34        -2.1580   -0.2350    2.0340 hn        1 MOL      0.304075
     79 H35        -1.8390    2.4060    2.7580 h1        1 MOL      0.095382
     80 H36        -2.9460    1.8570    1.5760 h1        1 MOL      0.095382
     81 N9         -0.5420    3.8020    1.1050 n         1 MOL     -0.613787
     82 C25         0.4350    4.8140    0.5570 c3        1 MOL      0.473197
     83 C26         1.7320    4.2300   -0.0670 c         1 MOL      0.215424
     84 O13         2.7370    4.9990   -0.1400 o         1 MOL     -0.491356
     85 C27        -0.2640    5.8940   -0.2600 c3        1 MOL     -0.251213
     86 C28         0.6190    7.0370   -0.7630 ca        1 MOL      0.023519
     87 C29         0.7390    8.2350   -0.0150 ca        1 MOL     -0.159378
     88 C30         1.1910    6.9330   -2.0980 ca        1 MOL     -0.159378
     89 C31         1.4170    9.3530   -0.6000 ca        1 MOL     -0.250004
     90 C32         1.7960    8.0730   -2.6780 ca        1 MOL     -0.250004
     91 C33         1.9890    9.2730   -1.9390 ca        1 MOL      0.331141
     92 O14         2.6530   10.3390   -2.4780 oh        1 MOL     -0.493047
     93 H37        -0.8090    3.9880    2.0610 hn        1 MOL      0.312574
     94 H38         0.6870    5.4200    1.4260 h1        1 MOL     -0.001957
     95 H39        -1.0550    6.3130    0.3720 hc        1 MOL      0.116683
     96 H40        -0.6800    5.3970   -1.1290 hc        1 MOL      0.116683
     97 H41         0.2630    8.3310    0.9530 ha        1 MOL      0.156010
     98 H42         1.2310    6.0070   -2.6530 ha        1 MOL      0.156010
     99 H43         1.5260   10.2660   -0.0300 ha        1 MOL      0.141160
    100 H44         2.2630    8.0710   -3.6530 ha        1 MOL      0.141160
    101 H45         3.0560   10.1140   -3.3280 ho        1 MOL      0.370395
    102 N10         1.7720    2.9630   -0.4820 n         1 MOL     -0.406270
    103 C34         2.9640    2.2160   -0.8510 c3        1 MOL     -0.145782
    104 C35         3.7620    1.7640    0.3820 c         1 MOL      0.668085
    105 O15         3.8780    0.5740    0.6500 o         1 MOL     -0.644793
    106 C36         3.8260    2.9150   -1.9140 c3        1 MOL      0.205557
    107 C37         2.9870    3.1770   -3.1060 c3        1 MOL      0.145282
    108 C38         4.9560    1.8910   -2.2130 c3        1 MOL     -0.592817
    109 C39         3.6900    3.9290   -4.2940 c3        1 MOL     -0.204659
    110 H46         0.9100    2.4410   -0.3990 hn        1 MOL      0.360644
    111 H47         2.6070    1.2920   -1.2950 h1        1 MOL      0.082203
    112 H48         4.3090    3.7720   -1.4500 hc        1 MOL      0.037228
    113 H49         2.1940    3.8550   -2.7750 hc        1 MOL     -0.006678
    114 H50         2.5280    2.2830   -3.5230 hc        1 MOL     -0.006678
    115 H51         5.3320    2.0420   -3.2170 hc        1 MOL      0.154030
    116 H52         5.7390    1.8770   -1.4490 hc        1 MOL      0.154030
    117 H53         4.5560    0.8880   -2.3640 hc        1 MOL      0.154030
    118 H54         4.1060    3.1950   -4.9850 hc        1 MOL      0.038454
    119 H55         2.9170    4.4620   -4.8570 hc        1 MOL      0.038454
    120 H56         4.5150    4.5660   -3.9760 hc        1 MOL      0.038454
    121 N11         4.2570    2.7030    1.1780 n         1 MOL     -0.136250
    122 C40         4.7490    2.4520    2.5100 c3        1 MOL     -0.211654
    123 C41         6.2100    1.9890    2.5850 c         1 MOL      0.489973
    124 O16         6.5740    1.3520    3.5950 o         1 MOL     -0.507267
    125 C42         4.5800    3.8470    3.1400 c3        1 MOL      0.323441
    126 O17         5.2070    4.8730    2.4830 oh        1 MOL     -0.606462
    127 H57         4.0860    3.6500    0.8540 hn        1 MOL      0.157358
    128 H58         4.0720    1.7330    2.9760 h1        1 MOL      0.125716
    129 H59         4.8430    3.7880    4.1940 h1        1 MOL     -0.016999
    130 H60         3.5010    3.9940    3.2140 h1        1 MOL     -0.016999
    131 H61         4.6970    5.6550    2.7150 ho        1 MOL      0.412228
    132 N12         7.0310    2.1630    1.5400 n         1 MOL     -0.221936
    133 C43         8.3690    1.6410    1.3270 c3        1 MOL      0.180780
    134 C44         8.2590    0.0860    1.5360 c         1 MOL      0.435009
    135 O18         9.0800   -0.4590    2.2280 o         1 MOL     -0.488312
    136 C45         9.4130    2.3180    2.1300 c3        1 MOL     -0.444792
    137 H62         6.5920    2.6310    0.7620 hn        1 MOL      0.172316
    138 H63         8.5280    1.9060    0.2840 h1        1 MOL      0.045156
    139 H64        10.3110    1.6960    2.1000 hc        1 MOL      0.126051
    140 H65         9.5700    3.3490    1.8310 hc        1 MOL      0.126051
    141 H66         9.0710    2.2600    3.1620 hc        1 MOL      0.126051
    142 N13         7.2070   -0.5260    1.0130 n         1 MOL     -0.625268
    143 C46         6.9830   -1.9640    1.1320 c3        1 MOL      0.864980
    144 C47         6.6910   -2.5620   -0.2290 c         1 MOL      0.134240
    145 O19         6.1360   -1.8470   -1.0870 o         1 MOL     -0.430464
    146 C48         5.7830   -2.1750    2.0950 c3        1 MOL     -0.360831
    147 H67         6.5110    0.0080    0.5140 hn        1 MOL      0.195948
    148 H68         7.8560   -2.4510    1.5750 h1        1 MOL     -0.121359
    149 H69         6.1390   -2.1880    3.1310 hc        1 MOL      0.075929
    150 H70         5.0510   -1.4330    1.7920 hc        1 MOL      0.075929
    151 H71         5.2960   -3.1190    1.8470 hc        1 MOL      0.075929
    152 N14         6.7830   -3.8360   -0.4060 n         1 MOL     -0.491364
    153 C49         6.3310   -4.6670   -1.5550 c3        1 MOL      0.381808
    154 C50         6.8100   -4.2110   -2.9070 c         1 MOL      0.231855
    155 O20         6.0440   -4.1870   -3.8480 o         1 MOL     -0.405133
    156 C51         4.7870   -4.9280   -1.3730 c3        1 MOL     -0.023367
    157 C52         4.3050   -6.3500   -0.9350 c3        1 MOL     -0.270822
    158 C53         2.7300   -6.4920   -1.2240 c         1 MOL      0.601290
    159 O21         1.9740   -6.8360   -0.3000 o         1 MOL     -0.672374
    160 O22         2.1680   -5.9770   -2.2510 o         1 MOL     -0.672374
    161 H72         7.1900   -4.2430    0.4230 hn        1 MOL      0.260608
    162 H73         6.8260   -5.6230   -1.3950 h1        1 MOL     -0.021408
    163 H74         4.2900   -4.6990   -2.3130 hc        1 MOL      0.032941
    164 H75         4.3470   -4.2420   -0.6640 hc        1 MOL      0.032941
    165 H76         4.6340   -6.5010    0.0990 hc        1 MOL      0.063031
    166 H77         4.7830   -7.1250   -1.5370 hc        1 MOL      0.063031
    167 N15         7.9710   -3.4470   -2.8880 n         1 MOL     -0.232446
    168 C54         8.1930   -2.4030   -3.8830 c3        1 MOL     -0.169764
    169 H78         8.8180   -1.6200   -3.4530 h1        1 MOL      0.088127
    170 H79         8.6930   -2.8290   -4.7520 h1        1 MOL      0.088127
    171 H80         7.2360   -1.9790   -4.1850 h1        1 MOL      0.088127
    172 H81         8.6950   -3.5400   -2.1950 hn        1 MOL      0.229356
    173 Ca1         0.0970   -4.8820   -1.1800 Ca        1 MOL      1.756431
    174 O23        -0.9880   -7.5500   -1.7500 oh        1 MOL     -0.847544
    175 H82        -1.3200   -7.8350   -2.6070 ho        1 MOL      0.419669
    176 H83        -1.3770   -8.1500   -1.1250 ho        1 MOL      0.419669
    177 O24        -0.8240   -5.9860    0.9990 oh        1 MOL     -0.847544
    178 H84        -1.7820   -5.9960    1.0230 ho        1 MOL      0.419669
    179 H85        -0.5590   -6.6010    1.6800 ho        1 MOL      0.419669
    180 O25        -0.3750   -4.7470   -3.6690 oh        1 MOL     -0.847544
    181 H86         0.0070   -4.8110   -4.5450 ho        1 MOL      0.419669
    182 H87        -1.3210   -4.7580   -3.8180 ho        1 MOL      0.419669
    183 O26         1.2080   -2.6350   -1.9790 oh        1 MOL     -0.847544
    184 H88         2.0970   -2.3110   -1.8570 ho        1 MOL      0.419669
    185 H89         0.7600   -1.9160   -2.4470 ho        1 MOL      0.419669
@<TRIPOS>BOND
     1    1    2 1   
     2    1    4 1   
     3    1    5 1   
     4    1    6 1   
     5    2    3 2   
     6    2    7 1   
     7    7    8 1   
     8    7   15 1   
     9    8    9 1   
    10    8   11 1   
    11    8   16 1   
    12    9   10 2   
    13    9   19 1   
    14   11   12 1   
    15   11   17 1   
    16   11   18 1   
    17   12   13 1   
    18   12   14 1   
    19   19   20 1   
    20   19   28 1   
    21   20   21 1   
    22   20   23 1   
    23   20   29 1   
    24   21   22 2   
    25   21   41 1   
    26   23   24 1   
    27   23   30 1   
    28   23   31 1   
    29   24   25 1   
    30   24   32 1   
    31   24   33 1   
    32   25   26 1   
    33   25   34 1   
    34   25   35 1   
    35   26   27 1   
    36   26   36 1   
    37   26   37 1   
    38   27   38 1   
    39   27   39 1   
    40   27   40 1   
    41   41   42 1   
    42   41   49 1   
    43   42   43 1   
    44   42   45 1   
    45   42   50 1   
    46   43   44 2   
    47   43   53 1   
    48   45   46 1   
    49   45   51 1   
    50   45   52 1   
    51   46   47 1   
    52   46   48 1   
    53   53   54 1   
    54   53   57 1   
    55   54   55 1   
    56   54   58 1   
    57   54   59 1   
    58   55   56 2   
    59   55   60 1   
    60   60   61 1   
    61   60   68 1   
    62   61   62 1   
    63   61   64 1   
    64   61   69 1   
    65   62   63 2   
    66   62   74 1   
    67   64   65 1   
    68   64   70 1   
    69   64   71 1   
    70   65   66 1   
    71   65   67 2   
    72   66   72 1   
    73   66   73 1   
    74   74   75 1   
    75   74   78 1   
    76   75   76 1   
    77   75   79 1   
    78   75   80 1   
    79   76   77 2   
    80   76   81 1   
    81   81   82 1   
    82   81   93 1   
    83   82   83 1   
    84   82   85 1   
    85   82   94 1   
    86   83   84 2   
    87   83  102 1   
    88   85   86 1   
    89   85   95 1   
    90   85   96 1   
    91   86   87 ar  
    92   86   88 ar  
    93   87   89 ar  
    94   87   97 1   
    95   88   90 ar  
    96   88   98 1   
    97   89   91 ar  
    98   89   99 1   
    99   90   91 ar  
   100   90  100 1   
   101   91   92 1   
   102   92  101 1   
   103  102  103 1   
   104  102  110 1   
   105  103  104 1   
   106  103  106 1   
   107  103  111 1   
   108  104  105 2   
   109  104  121 1   
   110  106  107 1   
   111  106  108 1   
   112  106  112 1   
   113  107  109 1   
   114  107  113 1   
   115  107  114 1   
   116  108  115 1   
   117  108  116 1   
   118  108  117 1   
   119  109  118 1   
   120  109  119 1   
   121  109  120 1   
   122  121  122 1   
   123  121  127 1   
   124  122  123 1   
   125  122  125 1   
   126  122  128 1   
   127  123  124 2   
   128  123  132 1   
   129  125  126 1   
   130  125  129 1   
   131  125  130 1   
   132  126  131 1   
   133  132  133 1   
   134  132  137 1   
   135  133  134 1   
   136  133  136 1   
   137  133  138 1   
   138  134  135 2   
   139  134  142 1   
   140  136  139 1   
   141  136  140 1   
   142  136  141 1   
   143  142  143 1   
   144  142  147 1   
   145  143  144 1   
   146  143  146 1   
   147  143  148 1   
   148  144  145 2   
   149  144  152 1   
   150  146  149 1   
   151  146  150 1   
   152  146  151 1   
   153  152  153 1   
   154  152  161 1   
   155  153  154 1   
   156  153  156 1   
   157  153  162 1   
   158  154  155 2   
   159  154  167 1   
   160  156  157 1   
   161  156  163 1   
   162  156  164 1   
   163  157  158 1   
   164  157  165 1   
   165  157  166 1   
   166  158  159 1   
   167  158  160 1   
   168  167  168 1   
   169  167  172 1   
   170  168  169 1   
   171  168  170 1   
   172  168  171 1   
   173  174  175 1   
   174  174  176 1   
   175  177  178 1   
   176  177  179 1   
   177  180  181 1   
   178  180  182 1   
   179  183  184 1   
   180  183  185 1   
@<TRIPOS>SUBSTRUCTURE
     1 MOL         1 TEMP              0 ****  ****    0 ROOT
