@<TRIPOS>MOLECULE
MOL
  182   178     1     0     0
SMALL
resp


@<TRIPOS>ATOM
      1 C1         -0.0040   -4.1690    6.4670 c3        1 MOL     -0.443667
      2 C2          0.0340   -4.0700    4.9420 c         1 MOL      0.785915
      3 O1         -0.9730   -4.2420    4.2890 o         1 MOL     -0.570962
      4 H1         -1.0210   -4.3900    6.7900 hc        1 MOL      0.116000
      5 H2          0.6620   -4.9660    6.7970 hc        1 MOL      0.116000
      6 H3          0.3180   -3.2230    6.9030 hc        1 MOL      0.116000
      7 N1          1.2990   -3.7240    4.4540 n         1 MOL     -0.634712
      8 C3          1.5180   -3.3150    3.0400 c3        1 MOL      0.052095
      9 C4          1.3380   -4.4660    2.0210 c         1 MOL      0.500750
     10 O2          1.6510   -5.6450    2.3190 o         1 MOL     -0.532207
     11 C5          2.8930   -2.6220    2.9220 c3        1 MOL     -0.090448
     12 C6          3.0640   -1.8950    1.5940 c         1 MOL      0.564433
     13 O3          3.9170   -1.0170    1.4850 o         1 MOL     -0.682146
     14 O4          2.2890   -2.1390    0.6100 o         1 MOL     -0.682146
     15 H4          1.9890   -3.6860    5.1870 hn        1 MOL      0.325752
     16 H5          0.8030   -2.5260    2.7840 h1        1 MOL      0.024577
     17 H6          3.7410   -3.2870    3.0450 hc        1 MOL      0.060874
     18 H7          2.8560   -1.8210    3.6600 hc        1 MOL      0.060874
     19 N2          0.6410   -4.1850    0.9220 n         1 MOL     -0.392613
     20 C7          0.4670   -5.0620   -0.2780 c3        1 MOL      0.017092
     21 C8          1.5960   -5.0110   -1.3890 c         1 MOL      0.517977
     22 O5          1.4010   -5.6900   -2.4270 o         1 MOL     -0.581230
     23 C9         -0.9650   -4.8240   -0.7510 c3        1 MOL      0.038263
     24 C10        -1.7410   -6.0880   -1.0190 c3        1 MOL      0.063248
     25 C11        -2.9410   -5.7690   -1.9500 c3        1 MOL     -0.159232
     26 C12        -2.4850   -5.2580   -3.2970 c3        1 MOL      0.148428
     27 N3         -3.6100   -4.9070   -4.2110 n4        1 MOL     -0.220899
     28 H8          0.3560   -3.2250    0.7930 hn        1 MOL      0.300609
     29 H9          0.6210   -6.0530    0.1340 h1        1 MOL      0.096110
     30 H10        -0.8660   -4.1110   -1.5850 hc        1 MOL     -0.008873
     31 H11        -1.4990   -4.2930    0.0290 hc        1 MOL     -0.008873
     32 H12        -1.8870   -6.6950   -0.1290 hc        1 MOL      0.029677
     33 H13        -1.0350   -6.7110   -1.5670 hc        1 MOL      0.029677
     34 H14        -3.5220   -5.0250   -1.4080 hc        1 MOL      0.041484
     35 H15        -3.5390   -6.6650   -2.1200 hc        1 MOL      0.041484
     36 H16        -1.8600   -6.0270   -3.7460 hx        1 MOL      0.046240
     37 H17        -1.9140   -4.3300   -3.2090 hx        1 MOL      0.046240
     38 H18        -4.1190   -4.0680   -3.9780 hn        1 MOL      0.247918
     39 H19        -3.2700   -4.9200   -5.1550 hn        1 MOL      0.247918
     40 H20        -4.2840   -5.6600   -4.2540 hn        1 MOL      0.247918
     41 N4          2.6990   -4.2930   -1.2270 n         1 MOL     -0.304045
     42 C13         3.8280   -4.4380   -2.1800 c3        1 MOL     -0.013176
     43 C14         5.2100   -4.4470   -1.5330 c         1 MOL      0.491261
     44 O6          6.1530   -5.0240   -2.0850 o         1 MOL     -0.556738
     45 C15         3.8250   -3.2940   -3.1730 c3        1 MOL     -0.279165
     46 C16         3.6620   -1.9230   -2.5800 c         1 MOL      0.882221
     47 O7          2.8590   -1.1190   -3.0610 o         1 MOL     -0.773656
     48 O8          4.3270   -1.5810   -1.5530 o         1 MOL     -0.773656
     49 H21         2.7400   -3.5230   -0.5660 hn        1 MOL      0.111316
     50 H22         3.6960   -5.3740   -2.7330 h1        1 MOL      0.131239
     51 H23         2.9830   -3.4200   -3.8530 hc        1 MOL      0.080361
     52 H24         4.7230   -3.2250   -3.7870 hc        1 MOL      0.080361
     53 N5          5.4150   -3.7030   -0.4290 n         1 MOL     -0.379479
     54 C17         6.6740   -3.7380    0.2180 c3        1 MOL      0.051368
     55 C18         7.4370   -2.4290    0.1700 c         1 MOL      0.409607
     56 O9          8.5070   -2.4070    0.7490 o         1 MOL     -0.564264
     57 H25         4.7690   -3.0020   -0.1110 hn        1 MOL      0.336017
     58 H26         7.3850   -4.5020   -0.1070 h1        1 MOL      0.071073
     59 H27         6.4760   -4.0400    1.2540 h1        1 MOL      0.071073
     60 N6          6.8830   -1.3810   -0.4070 n         1 MOL     -0.154201
     61 C19         7.5520   -0.1060   -0.5660 c3        1 MOL      0.126437
     62 C20         6.5890    1.0490   -0.4280 c         1 MOL      0.380352
     63 O10         5.3610    0.9240   -0.4030 o         1 MOL     -0.361109
     64 C21         8.2110   -0.1190   -2.0050 c3        1 MOL     -0.418272
     65 C22         7.2390    0.0160   -3.1150 c         1 MOL      0.664074
     66 N7          6.8260   -1.0690   -3.7540 n         1 MOL     -0.755498
     67 O11         6.8510    1.1260   -3.4460 o         1 MOL     -0.572101
     68 H28         5.9880   -1.5830   -0.8280 hn        1 MOL      0.135115
     69 H29         8.3460    0.0470    0.1610 h1        1 MOL      0.066114
     70 H30         8.8350   -0.9950   -2.1590 hc        1 MOL      0.128918
     71 H31         8.8180    0.7910   -2.0590 hc        1 MOL      0.128918
     72 H32         7.2310   -1.9050   -3.3830 hn        1 MOL      0.369050
     73 H33         6.4810   -1.0420   -4.7030 hn        1 MOL      0.369050
     74 N8          7.2480    2.2340   -0.2650 n         1 MOL     -0.392315
     75 C23         6.6040    3.5230   -0.5400 c3        1 MOL     -0.107679
     76 C24         5.5500    3.8530    0.5420 c         1 MOL      0.565727
     77 O12         5.7890    3.5550    1.7420 o         1 MOL     -0.550936
     78 H34         8.2410    2.3380   -0.1090 hn        1 MOL      0.331413
     79 H35         6.1050    3.4390   -1.5030 h1        1 MOL      0.073332
     80 H36         7.2910    4.3590   -0.4450 h1        1 MOL      0.073332
     81 N9          4.3890    4.2590    0.1810 n         1 MOL     -0.415008
     82 C25         3.2760    4.5260    1.1070 c3        1 MOL      0.139681
     83 C26         2.5640    3.2190    1.5210 c         1 MOL      0.548819
     84 O13         2.7600    2.1930    0.9140 o         1 MOL     -0.493932
     85 C27         2.2530    5.4610    0.4750 c3        1 MOL     -0.028156
     86 C28         2.8180    6.7420   -0.1570 ca        1 MOL     -0.063803
     87 C29         2.8280    6.7610   -1.5520 ca        1 MOL     -0.059393
     88 C30         3.1670    7.8980    0.5720 ca        1 MOL     -0.059393
     89 C31         3.4300    7.8520   -2.2300 ca        1 MOL     -0.363630
     90 C32         3.7300    9.0040   -0.1330 ca        1 MOL     -0.363630
     91 C33         3.9450    8.9380   -1.4920 ca        1 MOL      0.465022
     92 O14         4.6530    9.8790   -2.1700 oh        1 MOL     -0.501220
     93 H37         4.2470    4.4340   -0.8030 hn        1 MOL      0.198122
     94 H38         3.6630    5.1050    1.9500 h1        1 MOL      0.056609
     95 H39         1.5440    5.7890    1.2350 hc        1 MOL      0.015334
     96 H40         1.6840    4.8820   -0.2540 hc        1 MOL      0.015334
     97 H41         2.5610    5.9540   -2.2150 ha        1 MOL      0.128362
     98 H42         3.0850    7.9220    1.6510 ha        1 MOL      0.128362
     99 H43         3.4830    7.8340   -3.3040 ha        1 MOL      0.177697
    100 H44         3.9700    9.9090    0.4210 ha        1 MOL      0.177697
    101 H45         4.9400    9.6390   -3.0540 ho        1 MOL      0.364179
    102 N10         1.7230    3.1840    2.5330 n         1 MOL     -0.706595
    103 C34         0.9610    2.0420    3.1220 c3        1 MOL      0.127883
    104 C35         0.1720    1.2090    2.1150 c         1 MOL      0.661113
    105 O15         0.7730    0.5140    1.3490 o         1 MOL     -0.483961
    106 C36         1.8910    1.2040    4.0110 c3        1 MOL      0.305576
    107 C37         1.1530    0.2860    5.0120 c3        1 MOL     -0.279146
    108 C38         2.9750    1.9140    4.7840 c3        1 MOL     -0.279947
    109 C39         0.0640    0.9150    5.8820 c3        1 MOL     -0.198899
    110 H46         1.6700    4.0830    2.9910 hn        1 MOL      0.330483
    111 H47         0.2020    2.5420    3.7210 h1        1 MOL      0.046293
    112 H48         2.3500    0.5190    3.2980 hc        1 MOL     -0.005147
    113 H49         1.8260   -0.1850    5.7400 hc        1 MOL      0.090654
    114 H50         0.6500   -0.5290    4.5020 hc        1 MOL      0.090654
    115 H51         3.6110    2.3740    4.0250 hc        1 MOL      0.079364
    116 H52         2.5310    2.7480    5.3210 hc        1 MOL      0.079364
    117 H53         3.6920    1.3050    5.3280 hc        1 MOL      0.079364
    118 H54         0.5320    1.6630    6.5020 hc        1 MOL      0.056249
    119 H55        -0.7220    1.3440    5.2590 hc        1 MOL      0.056249
    120 H56        -0.3560    0.0800    6.4430 hc        1 MOL      0.056249
    121 N11        -1.1430    1.1980    2.0860 n         1 MOL     -0.663687
    122 C40        -1.9590    0.5310    1.0780 c3        1 MOL      0.245621
    123 C41        -3.2840    1.2130    0.7140 c         1 MOL      0.529139
    124 O16        -3.9260    1.7050    1.6740 o         1 MOL     -0.540816
    125 C42        -2.4020   -0.8650    1.5450 c3        1 MOL      0.012957
    126 O17        -2.4380   -1.7680    0.5070 oh        1 MOL     -0.757483
    127 H57        -1.5240    1.8930    2.7150 hn        1 MOL      0.311597
    128 H58        -1.3980    0.5550    0.1440 h1        1 MOL      0.045833
    129 H59        -3.2710   -0.9460    2.2030 h1        1 MOL      0.091983
    130 H60        -1.5780   -1.3500    2.0710 h1        1 MOL      0.091983
    131 H61        -3.1010   -2.4210    0.7260 ho        1 MOL      0.498796
    132 N12        -3.6130    1.2140   -0.5540 n         1 MOL     -0.579009
    133 C43        -5.0110    1.3720   -0.8350 c3        1 MOL      0.388452
    134 C44        -5.3670    0.5320   -2.0370 c         1 MOL      0.573949
    135 O18        -4.4760    0.2280   -2.7720 o         1 MOL     -0.556521
    136 C45        -5.3060    2.8530   -1.1340 c3        1 MOL     -0.110072
    137 H62        -3.0660    0.7140   -1.2490 hn        1 MOL      0.265748
    138 H63        -5.5890    0.9920    0.0040 h1        1 MOL      0.040419
    139 H64        -4.7600    3.2730   -1.9650 hc        1 MOL      0.024105
    140 H65        -6.3730    2.9910   -1.3240 hc        1 MOL      0.024105
    141 H66        -5.2410    3.3340   -0.1610 hc        1 MOL      0.024105
    142 N13        -6.6630    0.1750   -2.3190 n         1 MOL     -0.735732
    143 C46        -7.7560    0.2410   -1.4000 c3        1 MOL      0.406921
    144 C47        -9.1020    0.5480   -2.1440 c         1 MOL      0.460168
    145 O19        -9.0870    0.5560   -3.3430 o         1 MOL     -0.551147
    146 C48        -7.7280   -1.0880   -0.6290 c3        1 MOL     -0.293570
    147 H67        -6.8120   -0.2470   -3.2240 hn        1 MOL      0.368310
    148 H68        -7.5670    1.0140   -0.6590 h1        1 MOL     -0.022441
    149 H69        -7.8810   -1.8820   -1.3550 hc        1 MOL      0.069917
    150 H70        -6.7490   -1.1600   -0.1480 hc        1 MOL      0.069917
    151 H71        -8.4940   -1.0540    0.1540 hc        1 MOL      0.069917
    152 N14       -10.2310    0.7900   -1.5450 n         1 MOL     -0.445360
    153 C49       -10.5190    0.7200   -0.1340 c3        1 MOL     -0.062109
    154 C50        -9.8150    1.8220    0.7310 c         1 MOL      0.452334
    155 O20        -9.2470    1.5320    1.7870 o         1 MOL     -0.514970
    156 C51       -12.0350    0.8640    0.0760 c3        1 MOL     -0.039666
    157 C52       -12.9510   -0.1730   -0.4910 c3        1 MOL     -0.144748
    158 C53       -14.3620    0.1740   -0.0890 c         1 MOL      0.676020
    159 O21       -14.7670   -0.1650    1.0650 o         1 MOL     -0.659070
    160 O22       -15.0480    0.8090   -0.9290 o         1 MOL     -0.659070
    161 H72       -11.0350    0.6840   -2.1560 hn        1 MOL      0.341257
    162 H73       -10.3280   -0.2740    0.2790 h1        1 MOL      0.116713
    163 H74       -12.3270    1.8170   -0.3670 hc        1 MOL      0.045279
    164 H75       -12.0880    0.9600    1.1590 hc        1 MOL      0.045279
    165 H76       -12.7680   -1.2260   -0.2870 hc        1 MOL      0.012890
    166 H77       -12.7170   -0.1410   -1.5580 hc        1 MOL      0.012890
    167 N15        -9.6810    3.0470    0.2000 n         1 MOL     -0.308568
    168 C54        -8.8510    4.1490    0.7250 c3        1 MOL     -0.163469
    169 H78        -8.6170    3.9590    1.7730 h1        1 MOL      0.100968
    170 H79        -7.9260    4.2130    0.1530 h1        1 MOL      0.100968
    171 H80        -9.3980    5.0890    0.6400 h1        1 MOL      0.100968
    172 H81       -10.1780    3.2130   -0.6560 hn        1 MOL      0.248692
    173 Ca1         2.5360    0.0680   -0.6850 Ca        1 MOL      1.752168
    174 O23         0.0320   -1.3380   -1.0580 oh        1 MOL     -0.851114
    175 H82        -0.6600   -1.4140   -0.3980 ho        1 MOL      0.420107
    176 H83        -0.4200   -1.4690   -1.8980 ho        1 MOL      0.420107
    177 O24         3.6310    1.7460   -2.5000 oh        1 MOL     -0.851114
    178 H84         3.7170    2.5680   -2.9910 ho        1 MOL      0.420107
    179 H85         4.5360    1.4710   -2.3350 ho        1 MOL      0.420107
    180 O25         0.8890    2.0120   -1.6080 oh        1 MOL     -0.851114
    181 H86         1.1540    2.3400   -2.4760 ho        1 MOL      0.420107
    182 H87         0.0450    2.4400   -1.4420 ho        1 MOL      0.420107
@<TRIPOS>BOND
     1    1    2 1   
     2    1    4 1   
     3    1    5 1   
     4    1    6 1   
     5    2    3 2   
     6    2    7 1   
     7    7    8 1   
     8    7   15 1   
     9    8    9 1   
    10    8   11 1   
    11    8   16 1   
    12    9   10 2   
    13    9   19 1   
    14   11   12 1   
    15   11   17 1   
    16   11   18 1   
    17   12   13 1   
    18   12   14 1   
    19   19   20 1   
    20   19   28 1   
    21   20   21 1   
    22   20   23 1   
    23   20   29 1   
    24   21   22 2   
    25   21   41 1   
    26   23   24 1   
    27   23   30 1   
    28   23   31 1   
    29   24   25 1   
    30   24   32 1   
    31   24   33 1   
    32   25   26 1   
    33   25   34 1   
    34   25   35 1   
    35   26   27 1   
    36   26   36 1   
    37   26   37 1   
    38   27   38 1   
    39   27   39 1   
    40   27   40 1   
    41   41   42 1   
    42   41   49 1   
    43   42   43 1   
    44   42   45 1   
    45   42   50 1   
    46   43   44 2   
    47   43   53 1   
    48   45   46 1   
    49   45   51 1   
    50   45   52 1   
    51   46   47 1   
    52   46   48 1   
    53   53   54 1   
    54   53   57 1   
    55   54   55 1   
    56   54   58 1   
    57   54   59 1   
    58   55   56 2   
    59   55   60 1   
    60   60   61 1   
    61   60   68 1   
    62   61   62 1   
    63   61   64 1   
    64   61   69 1   
    65   62   63 2   
    66   62   74 1   
    67   64   65 1   
    68   64   70 1   
    69   64   71 1   
    70   65   66 1   
    71   65   67 2   
    72   66   72 1   
    73   66   73 1   
    74   74   75 1   
    75   74   78 1   
    76   75   76 1   
    77   75   79 1   
    78   75   80 1   
    79   76   77 2   
    80   76   81 1   
    81   81   82 1   
    82   81   93 1   
    83   82   83 1   
    84   82   85 1   
    85   82   94 1   
    86   83   84 2   
    87   83  102 1   
    88   85   86 1   
    89   85   95 1   
    90   85   96 1   
    91   86   87 ar  
    92   86   88 ar  
    93   87   89 ar  
    94   87   97 1   
    95   88   90 ar  
    96   88   98 1   
    97   89   91 ar  
    98   89   99 1   
    99   90   91 ar  
   100   90  100 1   
   101   91   92 1   
   102   92  101 1   
   103  102  103 1   
   104  102  110 1   
   105  103  104 1   
   106  103  106 1   
   107  103  111 1   
   108  104  105 2   
   109  104  121 1   
   110  106  107 1   
   111  106  108 1   
   112  106  112 1   
   113  107  109 1   
   114  107  113 1   
   115  107  114 1   
   116  108  115 1   
   117  108  116 1   
   118  108  117 1   
   119  109  118 1   
   120  109  119 1   
   121  109  120 1   
   122  121  122 1   
   123  121  127 1   
   124  122  123 1   
   125  122  125 1   
   126  122  128 1   
   127  123  124 2   
   128  123  132 1   
   129  125  126 1   
   130  125  129 1   
   131  125  130 1   
   132  126  131 1   
   133  132  133 1   
   134  132  137 1   
   135  133  134 1   
   136  133  136 1   
   137  133  138 1   
   138  134  135 2   
   139  134  142 1   
   140  136  139 1   
   141  136  140 1   
   142  136  141 1   
   143  142  143 1   
   144  142  147 1   
   145  143  144 1   
   146  143  146 1   
   147  143  148 1   
   148  144  145 2   
   149  144  152 1   
   150  146  149 1   
   151  146  150 1   
   152  146  151 1   
   153  152  153 1   
   154  152  161 1   
   155  153  154 1   
   156  153  156 1   
   157  153  162 1   
   158  154  155 2   
   159  154  167 1   
   160  156  157 1   
   161  156  163 1   
   162  156  164 1   
   163  157  158 1   
   164  157  165 1   
   165  157  166 1   
   166  158  159 1   
   167  158  160 1   
   168  167  168 1   
   169  167  172 1   
   170  168  169 1   
   171  168  170 1   
   172  168  171 1   
   173  174  175 1   
   174  174  176 1   
   175  177  178 1   
   176  177  179 1   
   177  180  181 1   
   178  180  182 1   
@<TRIPOS>SUBSTRUCTURE
     1 MOL         1 TEMP              0 ****  ****    0 ROOT
