@<TRIPOS>MOLECULE
MOL
  198   191     1     0     0
SMALL
resp


@<TRIPOS>ATOM
      1 C1         -4.9250    5.8350    1.7710 c3        1 MOL     -0.479276
      2 C2         -6.3380    5.4700    1.3010 c         1 MOL      0.644696
      3 O1         -6.7580    5.8780    0.1850 o         1 MOL     -0.561141
      4 H1         -4.7260    5.3540    2.7290 hc        1 MOL      0.135636
      5 H2         -4.1970    5.4940    1.0360 hc        1 MOL      0.135636
      6 H3         -4.8470    6.9170    1.8850 hc        1 MOL      0.135636
      7 N1         -7.0610    4.6090    2.0290 n         1 MOL     -0.656432
      8 C3         -8.3460    3.9630    1.7860 c3        1 MOL      0.517338
      9 C4         -8.5070    3.1690    0.4660 c         1 MOL      0.458362
     10 O2         -7.6980    3.3140   -0.4720 o         1 MOL     -0.447521
     11 C5         -9.4540    4.9920    2.0630 c3        1 MOL     -0.346053
     12 C6        -10.8700    4.4410    2.2080 c         1 MOL      0.789092
     13 O3        -10.9970    3.2950    2.6700 o         1 MOL     -0.724473
     14 O4        -11.8290    5.0680    1.6780 o         1 MOL     -0.724473
     15 H4         -6.4650    4.2920    2.7850 hn        1 MOL      0.308119
     16 H5         -8.4580    3.2140    2.5730 h1        1 MOL     -0.022156
     17 H6         -9.4680    5.8320    1.3750 hc        1 MOL      0.051256
     18 H7         -9.3020    5.5270    3.0010 hc        1 MOL      0.051256
     19 N2         -9.5670    2.3030    0.2430 n         1 MOL     -0.812491
     20 C7         -9.9930    1.6100   -1.0150 c3        1 MOL      0.304000
     21 C8         -8.9840    0.5780   -1.5240 c         1 MOL      0.327458
     22 O5         -9.3730   -0.3600   -2.2290 o         1 MOL     -0.549102
     23 C9        -10.6290    2.6450   -1.9730 c3        1 MOL     -0.101302
     24 C10       -11.6490    3.7270   -1.4890 c3        1 MOL      0.132477
     25 C11       -11.7920    4.9440   -2.4650 c3        1 MOL     -0.108096
     26 C12       -12.4910    6.2430   -1.9040 c3        1 MOL     -0.038237
     27 N3        -11.8000    6.8280   -0.7200 n4        1 MOL     -0.197577
     28 H8        -10.1760    2.2050    1.0410 hn        1 MOL      0.424574
     29 H9        -10.8330    0.9900   -0.7300 h1        1 MOL      0.043455
     30 H10       -11.2110    2.1770   -2.7660 hc        1 MOL      0.027490
     31 H11        -9.7660    3.0670   -2.4770 hc        1 MOL      0.027490
     32 H12       -11.2660    4.1500   -0.5650 hc        1 MOL      0.007799
     33 H13       -12.6080    3.2640   -1.2300 hc        1 MOL      0.007799
     34 H14       -12.4450    4.6590   -3.2830 hc        1 MOL      0.055460
     35 H15       -10.8030    5.2450   -2.8340 hc        1 MOL      0.055460
     36 H16       -13.5280    5.9560   -1.6820 hx        1 MOL      0.083219
     37 H17       -12.4280    7.0500   -2.6310 hx        1 MOL      0.083219
     38 H18       -12.2030    7.6550   -0.3090 hn        1 MOL      0.270456
     39 H19       -11.8410    6.1360    0.0180 hn        1 MOL      0.270456
     40 H20       -10.8240    7.0550   -0.8830 hn        1 MOL      0.270456
     41 N4         -7.7060    0.6630   -1.1430 n         1 MOL     -0.170901
     42 C13        -6.7860   -0.4320   -1.2860 c3        1 MOL      0.309132
     43 C14        -5.9860   -0.6940   -0.0280 c         1 MOL      0.228854
     44 O6         -5.4520    0.2200    0.6350 o         1 MOL     -0.516972
     45 C15        -5.8740   -0.0320   -2.4340 c3        1 MOL     -0.605039
     46 C16        -4.8580   -1.0980   -2.7840 c         1 MOL      1.008557
     47 O7         -4.9690   -2.2750   -2.4710 o         1 MOL     -0.824540
     48 O8         -3.8160   -0.7100   -3.3530 o         1 MOL     -0.824540
     49 H21        -7.4210    1.5170   -0.6770 hn        1 MOL      0.176157
     50 H22        -7.3510   -1.2940   -1.6560 h1        1 MOL      0.084235
     51 H23        -5.2840    0.8360   -2.1350 hc        1 MOL      0.150264
     52 H24        -6.3600    0.3270   -3.3380 hc        1 MOL      0.150264
     53 N5         -5.8990   -1.8940    0.5560 n         1 MOL     -0.129893
     54 C17        -6.6270   -3.1300    0.2640 c3        1 MOL     -0.219237
     55 C18        -5.8630   -4.4210    0.5410 c         1 MOL      0.608035
     56 O9         -5.9450   -4.9640    1.6280 o         1 MOL     -0.563796
     57 H25        -5.3170   -1.9280    1.3810 hn        1 MOL      0.169392
     58 H26        -7.0260   -3.0450   -0.7440 h1        1 MOL      0.091710
     59 H27        -7.4680   -3.2090    0.9470 h1        1 MOL      0.091710
     60 N6         -4.9560   -4.7460   -0.3690 n         1 MOL     -0.460361
     61 C19        -3.9360   -5.8180   -0.1890 c3        1 MOL      0.295032
     62 C20        -2.5400   -5.2010   -0.0440 c         1 MOL      0.410109
     63 O10        -2.3410   -4.0290   -0.3210 o         1 MOL     -0.651665
     64 C21        -3.9540   -6.7200   -1.3460 c3        1 MOL     -0.250113
     65 C22        -3.9020   -6.0460   -2.7510 c         1 MOL      0.517770
     66 O11        -4.4040   -6.7560   -3.7110 o         1 MOL     -0.602310
     67 O12        -3.6120   -4.8120   -2.9670 o         1 MOL     -0.602310
     68 H28        -4.8490   -4.2520   -1.2490 hn        1 MOL      0.364188
     69 H29        -4.1350   -6.3510    0.7460 h1        1 MOL     -0.012791
     70 H30        -4.8490   -7.3290   -1.3480 hc        1 MOL      0.054600
     71 H31        -3.0610   -7.3390   -1.3090 hc        1 MOL      0.054600
     72 N7         -1.6370   -6.0220    0.4750 n         1 MOL     -0.276892
     73 C23        -0.2330   -5.7170    0.7530 c3        1 MOL     -0.171979
     74 C24         0.0050   -4.8070    1.9170 c         1 MOL      0.538037
     75 O13         1.1040   -4.6710    2.4650 o         1 MOL     -0.536984
     76 H32        -1.8260   -7.0010    0.5990 hn        1 MOL      0.280181
     77 H33         0.1200   -5.1600   -0.1200 h1        1 MOL      0.120211
     78 H34         0.4350   -6.5690    0.8730 h1        1 MOL      0.120211
     79 N8         -0.9910   -4.0140    2.3510 n         1 MOL     -0.299443
     80 C25        -0.8530   -2.8580    3.2150 c3        1 MOL     -0.151026
     81 C26        -0.3220   -1.6810    2.3860 c         1 MOL      0.649027
     82 O14        -0.3580   -1.6540    1.1890 o         1 MOL     -0.433926
     83 C27        -2.1970   -2.4600    3.8870 c3        1 MOL      0.284725
     84 C28        -3.4070   -2.3170    2.9110 c3        1 MOL     -0.035827
     85 O15        -2.4630   -3.4320    4.8720 oh        1 MOL     -0.611729
     86 H35        -1.8140   -3.8680    1.7740 hn        1 MOL      0.099326
     87 H36        -0.0840   -3.1340    3.9330 h1        1 MOL      0.105062
     88 H37        -2.0620   -1.5030    4.3800 h1        1 MOL     -0.010004
     89 H38        -1.6220   -3.7780    5.1750 ho        1 MOL      0.402083
     90 H39        -3.3500   -3.1690    2.2350 hc        1 MOL      0.060438
     91 H40        -4.2840   -2.3820    3.5440 hc        1 MOL      0.060438
     92 H41        -3.3200   -1.3720    2.3740 hc        1 MOL      0.060438
     93 N9          0.1700   -0.6340    3.0840 n         1 MOL     -0.427325
     94 C29         0.5080    0.5720    2.3590 c3        1 MOL     -0.279951
     95 C30         1.7900    0.4720    1.4920 c         1 MOL      0.314935
     96 O16         2.0680    1.3720    0.6530 o         1 MOL     -0.500534
     97 C31         0.5460    1.8450    3.2580 c3        1 MOL      0.366696
     98 C32         1.8660    2.0010    4.0200 c3        1 MOL      0.112526
     99 C33        -0.7590    1.8390    4.1180 c3        1 MOL     -0.214618
    100 C34         1.8380    3.2930    4.8460 c3        1 MOL     -0.357044
    101 H42         0.3300   -0.5980    4.0770 hn        1 MOL      0.274709
    102 H43        -0.2720    0.7490    1.6160 h1        1 MOL      0.137544
    103 H44         0.4600    2.7540    2.6540 hc        1 MOL     -0.017821
    104 H45         2.6710    2.0600    3.2950 hc        1 MOL     -0.003026
    105 H46         2.1790    1.1450    4.6260 hc        1 MOL     -0.003026
    106 H47        -0.9520    2.8730    4.3940 hc        1 MOL      0.031260
    107 H48        -1.6340    1.5110    3.5690 hc        1 MOL      0.031260
    108 H49        -0.5990    1.2360    5.0190 hc        1 MOL      0.031260
    109 H50         2.8080    3.5820    5.2600 hc        1 MOL      0.093278
    110 H51         1.5910    4.1230    4.1820 hc        1 MOL      0.093278
    111 H52         1.0660    3.1310    5.6000 hc        1 MOL      0.093278
    112 N10         2.5950   -0.5490    1.6770 n         1 MOL     -0.220552
    113 C35         3.8340   -0.8590    0.8790 c3        1 MOL      0.031106
    114 C36         4.9610   -1.2790    1.7400 c         1 MOL      0.528869
    115 O17         4.7570   -1.8050    2.8360 o         1 MOL     -0.522202
    116 C37         3.6400   -1.8810   -0.2590 c3        1 MOL      0.367062
    117 C38         3.1020   -3.2440    0.0120 c3        1 MOL     -0.295365
    118 O18         2.7760   -1.2890   -1.2630 oh        1 MOL     -0.633852
    119 H53         2.4470   -1.1880    2.4480 hn        1 MOL      0.210298
    120 H54         4.0860    0.0430    0.3270 h1        1 MOL      0.055389
    121 H55         4.6110   -2.0920   -0.7190 h1        1 MOL     -0.011897
    122 H56         3.3300   -0.7870   -1.8660 ho        1 MOL      0.392339
    123 H57         3.9250   -3.8090    0.4480 hc        1 MOL      0.078638
    124 H58         2.2530   -3.2060    0.6940 hc        1 MOL      0.078638
    125 H59         2.8370   -3.8030   -0.8890 hc        1 MOL      0.078638
    126 N11         6.2010   -1.0250    1.3060 n         1 MOL     -0.526181
    127 C39         7.4110   -1.5470    1.9960 c3        1 MOL      0.045206
    128 C40         8.6310   -0.6020    1.8320 c         1 MOL      0.583352
    129 O19         9.1820   -0.3450    2.9090 o         1 MOL     -0.537510
    130 C41         7.7610   -2.8800    1.3140 c3        1 MOL      0.243594
    131 C42         8.9280   -3.5370    2.0160 c3        1 MOL     -0.485733
    132 O20         7.9550   -2.6910   -0.0960 oh        1 MOL     -0.644126
    133 H60         6.2970   -0.6270    0.3900 hn        1 MOL      0.285056
    134 H61         7.2050   -1.6850    3.0510 h1        1 MOL      0.114971
    135 H62         6.8760   -3.5090    1.4330 h1        1 MOL      0.066308
    136 H63         8.5700   -3.3470   -0.4210 ho        1 MOL      0.423844
    137 H64         8.8080   -3.4960    3.0990 hc        1 MOL      0.137487
    138 H65         8.8780   -4.5570    1.6340 hc        1 MOL      0.137487
    139 H66         9.9000   -3.1150    1.7530 hc        1 MOL      0.137487
    140 N12         8.9370   -0.2000    0.6020 n         1 MOL     -0.475399
    141 C43        10.1190    0.6230    0.1670 c3        1 MOL      0.051360
    142 C44         9.8230    1.3440   -1.1050 c         1 MOL      0.582941
    143 O21         9.2290    0.8570   -2.0870 o         1 MOL     -0.516001
    144 C45        11.3090   -0.3120    0.0360 c3        1 MOL     -0.280835
    145 C46        12.6040    0.4650   -0.0560 c3        1 MOL      0.030633
    146 C47        13.8020   -0.4340   -0.4080 c3        1 MOL     -0.127283
    147 C48        15.1550    0.3240   -0.4610 c3        1 MOL      0.065751
    148 N13        16.1640   -0.7120   -0.7470 n4        1 MOL     -0.081977
    149 H67         8.2910   -0.3690   -0.1520 hn        1 MOL      0.282264
    150 H68        10.3240    1.3900    0.9160 h1        1 MOL      0.064965
    151 H69        11.1460   -0.8630   -0.8880 hc        1 MOL      0.108797
    152 H70        11.3240   -0.9710    0.9070 hc        1 MOL      0.108797
    153 H71        12.8320    0.8610    0.9330 hc        1 MOL      0.047590
    154 H72        12.6060    1.2120   -0.8410 hc        1 MOL      0.047590
    155 H73        13.6890   -0.8950   -1.3920 hc        1 MOL      0.050149
    156 H74        13.9480   -1.1530    0.3960 hc        1 MOL      0.050149
    157 H75        15.4330    0.7430    0.5080 hx        1 MOL      0.066763
    158 H76        15.1520    1.1050   -1.2230 hx        1 MOL      0.066763
    159 H77        17.1140   -0.4040   -0.9040 hn        1 MOL      0.207592
    160 H78        16.1840   -1.3350    0.0520 hn        1 MOL      0.207592
    161 H79        15.8800   -1.2930   -1.5300 hn        1 MOL      0.207592
    162 N14        10.1720    2.6260   -1.1090 n         1 MOL     -0.359694
    163 C49         9.8630    3.5960   -2.1850 c3        1 MOL      0.138655
    164 C50         8.4000    3.5800   -2.6920 c         1 MOL      0.396323
    165 O22         8.2300    3.2570   -3.8100 o         1 MOL     -0.503210
    166 C51        10.4550    5.0470   -1.8770 c3        1 MOL      0.188803
    167 C52        11.9590    5.2730   -1.9840 c3        1 MOL     -0.292431
    168 C53        12.4690    6.7180   -1.4390 c         1 MOL      0.683547
    169 O23        11.9530    7.7680   -1.8400 o         1 MOL     -0.633155
    170 O24        13.2780    6.7930   -0.5280 o         1 MOL     -0.633155
    171 H80        10.8360    2.8850   -0.3960 hn        1 MOL      0.198425
    172 H81        10.4260    3.2700   -3.0640 h1        1 MOL      0.017405
    173 H82        10.1410    5.2020   -0.8410 hc        1 MOL     -0.011363
    174 H83        10.0370    5.8820   -2.4240 hc        1 MOL     -0.011363
    175 H84        12.2390    5.1790   -3.0220 hc        1 MOL      0.022703
    176 H85        12.4280    4.4480   -1.4520 hc        1 MOL      0.022703
    177 N15         7.3150    3.9780   -1.9800 n         1 MOL     -0.373494
    178 C54         7.2460    4.4070   -0.6260 c3        1 MOL      0.027302
    179 H86         7.6960    3.6520    0.0170 h1        1 MOL      0.027156
    180 H87         7.7850    5.3480   -0.5140 h1        1 MOL      0.027156
    181 H88         6.2030    4.5500   -0.3420 h1        1 MOL      0.027156
    182 H89         6.4170    3.8470   -2.4280 hn        1 MOL      0.289585
    183 Ca1        -2.3300   -2.6830   -2.5510 Ca        1 MOL      1.703586
    184 O25        -2.5550   -0.8380   -0.4830 oh        1 MOL     -0.829255
    185 H90        -3.0420   -0.8360    0.3380 ho        1 MOL      0.410034
    186 H91        -1.7810   -0.3140   -0.3060 ho        1 MOL      0.410034
    187 O26        -2.9550   -2.6060   -5.2810 oh        1 MOL     -0.829255
    188 H92        -3.6450   -1.9710   -5.4590 ho        1 MOL      0.410034
    189 H93        -2.1500   -2.1810   -5.5960 ho        1 MOL      0.410034
    190 O27        -0.5270   -4.1680   -3.7250 oh        1 MOL     -0.829255
    191 H94         0.0120   -4.8410   -3.3030 ho        1 MOL      0.410034
    192 H95        -0.5880   -4.4470   -4.6390 ho        1 MOL      0.410034
    193 O28        -0.0380   -2.4830   -1.1020 oh        1 MOL     -0.829255
    194 H96        -0.3700   -2.3190   -0.2130 ho        1 MOL      0.410034
    195 H97         0.7680   -1.9750   -1.1430 ho        1 MOL      0.410034
    196 O29        -0.5690   -1.0130   -3.7700 oh        1 MOL     -0.829255
    197 H98        -0.7110   -0.2450   -4.3220 ho        1 MOL      0.410034
    198 H99         0.3720   -1.0130   -3.6020 ho        1 MOL      0.410034
@<TRIPOS>BOND
     1    1    2 1   
     2    1    4 1   
     3    1    5 1   
     4    1    6 1   
     5    2    3 2   
     6    2    7 1   
     7    7    8 1   
     8    7   15 1   
     9    8    9 1   
    10    8   11 1   
    11    8   16 1   
    12    9   10 2   
    13    9   19 1   
    14   11   12 1   
    15   11   17 1   
    16   11   18 1   
    17   12   13 1   
    18   12   14 1   
    19   19   20 1   
    20   19   28 1   
    21   20   21 1   
    22   20   23 1   
    23   20   29 1   
    24   21   22 2   
    25   21   41 1   
    26   23   24 1   
    27   23   30 1   
    28   23   31 1   
    29   24   25 1   
    30   24   32 1   
    31   24   33 1   
    32   25   26 1   
    33   25   34 1   
    34   25   35 1   
    35   26   27 1   
    36   26   36 1   
    37   26   37 1   
    38   27   38 1   
    39   27   39 1   
    40   27   40 1   
    41   41   42 1   
    42   41   49 1   
    43   42   43 1   
    44   42   45 1   
    45   42   50 1   
    46   43   44 2   
    47   43   53 1   
    48   45   46 1   
    49   45   51 1   
    50   45   52 1   
    51   46   47 1   
    52   46   48 1   
    53   53   54 1   
    54   53   57 1   
    55   54   55 1   
    56   54   58 1   
    57   54   59 1   
    58   55   56 2   
    59   55   60 1   
    60   60   61 1   
    61   60   68 1   
    62   61   62 1   
    63   61   64 1   
    64   61   69 1   
    65   62   63 2   
    66   62   72 1   
    67   64   65 1   
    68   64   70 1   
    69   64   71 1   
    70   65   66 1   
    71   65   67 1   
    72   72   73 1   
    73   72   76 1   
    74   73   74 1   
    75   73   77 1   
    76   73   78 1   
    77   74   75 2   
    78   74   79 1   
    79   79   80 1   
    80   79   86 1   
    81   80   81 1   
    82   80   83 1   
    83   80   87 1   
    84   81   82 2   
    85   81   93 1   
    86   83   84 1   
    87   83   85 1   
    88   83   88 1   
    89   84   90 1   
    90   84   91 1   
    91   84   92 1   
    92   85   89 1   
    93   93   94 1   
    94   93  101 1   
    95   94   95 1   
    96   94   97 1   
    97   94  102 1   
    98   95   96 2   
    99   95  112 1   
   100   97   98 1   
   101   97   99 1   
   102   97  103 1   
   103   98  100 1   
   104   98  104 1   
   105   98  105 1   
   106   99  106 1   
   107   99  107 1   
   108   99  108 1   
   109  100  109 1   
   110  100  110 1   
   111  100  111 1   
   112  112  113 1   
   113  112  119 1   
   114  113  114 1   
   115  113  116 1   
   116  113  120 1   
   117  114  115 2   
   118  114  126 1   
   119  116  117 1   
   120  116  118 1   
   121  116  121 1   
   122  117  123 1   
   123  117  124 1   
   124  117  125 1   
   125  118  122 1   
   126  126  127 1   
   127  126  133 1   
   128  127  128 1   
   129  127  130 1   
   130  127  134 1   
   131  128  129 2   
   132  128  140 1   
   133  130  131 1   
   134  130  132 1   
   135  130  135 1   
   136  131  137 1   
   137  131  138 1   
   138  131  139 1   
   139  132  136 1   
   140  140  141 1   
   141  140  149 1   
   142  141  142 1   
   143  141  144 1   
   144  141  150 1   
   145  142  143 2   
   146  142  162 1   
   147  144  145 1   
   148  144  151 1   
   149  144  152 1   
   150  145  146 1   
   151  145  153 1   
   152  145  154 1   
   153  146  147 1   
   154  146  155 1   
   155  146  156 1   
   156  147  148 1   
   157  147  157 1   
   158  147  158 1   
   159  148  159 1   
   160  148  160 1   
   161  148  161 1   
   162  162  163 1   
   163  162  171 1   
   164  163  164 1   
   165  163  166 1   
   166  163  172 1   
   167  164  165 2   
   168  164  177 1   
   169  166  167 1   
   170  166  173 1   
   171  166  174 1   
   172  167  168 1   
   173  167  175 1   
   174  167  176 1   
   175  168  169 1   
   176  168  170 1   
   177  177  178 1   
   178  177  182 1   
   179  178  179 1   
   180  178  180 1   
   181  178  181 1   
   182  184  185 1   
   183  184  186 1   
   184  187  188 1   
   185  187  189 1   
   186  190  191 1   
   187  190  192 1   
   188  193  194 1   
   189  193  195 1   
   190  196  197 1   
   191  196  198 1   
@<TRIPOS>SUBSTRUCTURE
     1 MOL         1 TEMP              0 ****  ****    0 ROOT
