@<TRIPOS>MOLECULE
MOL
  189   185     1     0     0
SMALL
resp


@<TRIPOS>ATOM
      1 C1         12.3820    5.5150   -3.1420 c3        1 MOL     -0.228993
      2 C2         12.2610    4.0780   -2.4760 c         1 MOL      0.562163
      3 O1         13.1430    3.2250   -2.7530 o         1 MOL     -0.567962
      4 H1         11.7210    5.5710   -4.0070 hc        1 MOL      0.062280
      5 H2         12.0980    6.2770   -2.4170 hc        1 MOL      0.062280
      6 H3         13.4110    5.6820   -3.4610 hc        1 MOL      0.062280
      7 N1         11.1880    3.9130   -1.7530 n         1 MOL     -0.187294
      8 C3         10.9440    2.7170   -0.9310 c3        1 MOL     -0.332224
      9 C4          9.5190    2.1150   -0.9970 c         1 MOL      0.730919
     10 O2          8.5920    2.8770   -1.2080 o         1 MOL     -0.663428
     11 C5         11.2970    3.0100    0.5390 c3        1 MOL      0.049347
     12 C6         10.9340    4.3730    1.0740 c         1 MOL      0.594051
     13 O3         11.6340    4.8550    2.0530 o         1 MOL     -0.652990
     14 O4          9.9310    4.9900    0.5870 o         1 MOL     -0.652990
     15 H4         10.5250    4.6740   -1.7190 hn        1 MOL      0.136353
     16 H5         11.6330    1.9240   -1.2070 h1        1 MOL      0.115426
     17 H6         12.3230    2.7810    0.8220 hc        1 MOL      0.024815
     18 H7         10.8420    2.2420    1.1700 hc        1 MOL      0.024815
     19 N2          9.3630    0.8170   -0.6110 n         1 MOL     -0.571349
     20 C7          8.1950   -0.0210   -0.9900 c3        1 MOL      0.206174
     21 C8          7.0560    0.1680    0.0160 c         1 MOL      0.599875
     22 O5          7.4420    0.3450    1.1650 o         1 MOL     -0.600138
     23 C9          8.6510   -1.4590   -1.0690 c3        1 MOL     -0.406705
     24 C10         7.7360   -2.4260   -1.9330 c3        1 MOL      0.068103
     25 C11         7.9900   -2.1760   -3.4010 c3        1 MOL      0.031429
     26 C12         7.3070   -3.3410   -4.1470 c3        1 MOL      0.061105
     27 N3          7.3320   -3.0140   -5.5630 n4        1 MOL     -0.204367
     28 H8         10.1900    0.2980   -0.3450 hn        1 MOL      0.340526
     29 H9          7.8360    0.1900   -2.0020 h1        1 MOL      0.024582
     30 H10         8.6330   -1.9130   -0.0740 hc        1 MOL      0.136428
     31 H11         9.6470   -1.5620   -1.5060 hc        1 MOL      0.136428
     32 H12         6.7140   -2.2340   -1.6250 hc        1 MOL      0.020244
     33 H13         7.9540   -3.4610   -1.6490 hc        1 MOL      0.020244
     34 H14         9.0280   -2.0520   -3.6910 hc        1 MOL      0.016734
     35 H15         7.4050   -1.3180   -3.7630 hc        1 MOL      0.016734
     36 H16         6.2810   -3.4840   -3.8170 hx        1 MOL      0.051591
     37 H17         7.8760   -4.2580   -3.9440 hx        1 MOL      0.051591
     38 H18         6.7190   -2.2240   -5.7220 hn        1 MOL      0.211602
     39 H19         8.2760   -2.8170   -5.8480 hn        1 MOL      0.211602
     40 H20         6.9870   -3.7850   -6.1300 hn        1 MOL      0.211602
     41 N4          5.8100    0.0190   -0.3830 n         1 MOL     -0.419942
     42 C13         4.5750    0.0110    0.4790 c3        1 MOL      0.079799
     43 C14         3.4660   -0.9050   -0.0240 c         1 MOL      0.503892
     44 O6          3.2520   -1.0660   -1.2530 o         1 MOL     -0.604365
     45 C15         3.9200    1.3790    0.6790 c3        1 MOL     -0.041265
     46 C16         4.9110    2.5870    0.4560 c         1 MOL      0.719969
     47 O7          5.3710    2.8080   -0.7230 o         1 MOL     -0.798061
     48 O8          5.2170    3.3820    1.3760 o         1 MOL     -0.798061
     49 H21         5.7130   -0.3560   -1.3070 hn        1 MOL      0.267829
     50 H22         4.9220   -0.3590    1.4430 h1        1 MOL      0.069328
     51 H23         3.5500    1.4350    1.7020 hc        1 MOL      0.048455
     52 H24         3.0410    1.4140    0.0280 hc        1 MOL      0.048455
     53 N5          2.7390   -1.5800    0.8130 n         1 MOL     -0.228062
     54 C17         2.8160   -1.6800    2.2810 c3        1 MOL     -0.405530
     55 C18         2.7140   -3.1790    2.7760 c         1 MOL      0.650687
     56 O9          3.1250   -4.1790    2.1570 o         1 MOL     -0.568782
     57 H25         1.9960   -2.1630    0.4680 hn        1 MOL      0.207484
     58 H26         2.0220   -1.1230    2.7840 h1        1 MOL      0.160197
     59 H27         3.7810   -1.3540    2.6650 h1        1 MOL      0.160197
     60 N6          2.1480   -3.2420    3.9500 n         1 MOL     -0.377181
     61 C19         1.8220   -4.4850    4.6270 c3        1 MOL     -0.082757
     62 C20         0.5400   -5.0590    3.9920 c         1 MOL      0.596011
     63 O10        -0.5090   -4.4840    3.9690 o         1 MOL     -0.480811
     64 C21         1.8660   -4.3040    6.1560 c3        1 MOL     -0.251170
     65 C22         1.1950   -5.4850    6.8110 c         1 MOL      0.710455
     66 O11        -0.0380   -5.5060    6.9320 o         1 MOL     -0.639637
     67 O12         1.9140   -6.3400    7.2860 o         1 MOL     -0.639637
     68 H28         1.9210   -2.3880    4.4500 hn        1 MOL      0.274811
     69 H29         2.6010   -5.1940    4.3550 h1        1 MOL      0.094790
     70 H30         1.3200   -3.4280    6.5030 hc        1 MOL      0.079150
     71 H31         2.9160   -4.2870    6.4460 hc        1 MOL      0.079150
     72 N7          0.7360   -6.2580    3.4160 n         1 MOL     -0.403815
     73 C23        -0.3450   -6.8560    2.6200 c3        1 MOL     -0.198847
     74 C24        -0.4970   -6.2520    1.2530 c         1 MOL      0.472092
     75 O13        -1.3500   -6.7200    0.5030 o         1 MOL     -0.582080
     76 H32         1.6930   -6.5740    3.4230 hn        1 MOL      0.280168
     77 H33        -1.2850   -6.8530    3.1840 h1        1 MOL      0.148805
     78 H34        -0.0200   -7.8820    2.4460 h1        1 MOL      0.148805
     79 N8          0.3180   -5.3240    0.7910 n         1 MOL     -0.092758
     80 C25         0.0950   -4.6370   -0.5120 c3        1 MOL     -0.072840
     81 C26        -0.2820   -3.2040   -0.2980 c         1 MOL      0.618805
     82 O14        -0.1810   -2.8080    0.8760 o         1 MOL     -0.504803
     83 C27         1.4100   -4.7890   -1.3480 c3        1 MOL      0.282418
     84 C28         1.7950   -6.1500   -1.7540 c3        1 MOL     -0.266109
     85 O15         1.2000   -4.2010   -2.6410 oh        1 MOL     -0.674180
     86 H35         1.0300   -4.9310    1.3990 hn        1 MOL      0.094179
     87 H36        -0.7160   -5.0780   -1.0850 h1        1 MOL      0.081302
     88 H37         2.2010   -4.3080   -0.7750 h1        1 MOL      0.011566
     89 H38         1.8350   -4.5290   -3.2770 ho        1 MOL      0.422176
     90 H39         2.2810   -6.6580   -0.9270 hc        1 MOL      0.069066
     91 H40         0.9350   -6.7760   -1.9910 hc        1 MOL      0.069066
     92 H41         2.4260   -6.2360   -2.6410 hc        1 MOL      0.069066
     93 N9         -0.6960   -2.5000   -1.3900 n         1 MOL     -0.474283
     94 C29        -1.2200   -1.1780   -1.3870 c3        1 MOL      0.023732
     95 C30        -2.7410   -1.2150   -1.2000 c         1 MOL      0.650729
     96 O16        -3.2070   -0.5730   -0.2550 o         1 MOL     -0.569246
     97 C31        -0.9220   -0.3870   -2.7000 c3        1 MOL      0.049931
     98 C32         0.5550   -0.4690   -3.1550 c3        1 MOL      0.171727
     99 C33        -1.5000    1.0920   -2.6350 c3        1 MOL     -0.231488
    100 C34         0.7520    0.0030   -4.6110 c3        1 MOL     -0.426526
    101 H42        -0.4360   -2.8200   -2.3150 hn        1 MOL      0.275808
    102 H43        -0.7600   -0.5840   -0.5950 h1        1 MOL      0.066393
    103 H44        -1.4330   -0.9660   -3.4690 hc        1 MOL      0.002327
    104 H45         0.9050   -1.4930   -3.1600 hc        1 MOL      0.015429
    105 H46         1.1520    0.0930   -2.4310 hc        1 MOL      0.015429
    106 H47        -1.0070    1.5260   -1.7640 hc        1 MOL      0.065180
    107 H48        -1.3760    1.7880   -3.4670 hc        1 MOL      0.065180
    108 H49        -2.5700    1.1140   -2.4340 hc        1 MOL      0.065180
    109 H50         0.0710   -0.4570   -5.3310 hc        1 MOL      0.095886
    110 H51         0.5220    1.0710   -4.6540 hc        1 MOL      0.095886
    111 H52         1.8090   -0.1860   -4.8010 hc        1 MOL      0.095886
    112 N10        -3.4690   -2.1020   -1.8550 n         1 MOL     -0.544328
    113 C35        -4.8310   -2.5030   -1.4940 c3        1 MOL      0.113936
    114 C36        -5.7620   -1.9820   -2.5750 c         1 MOL      0.541972
    115 O17        -5.4780   -2.2200   -3.7620 o         1 MOL     -0.546662
    116 C37        -5.0410   -3.9580   -1.2840 c3        1 MOL      0.322823
    117 C38        -4.1550   -4.5570   -0.1900 c3        1 MOL     -0.423950
    118 O18        -6.4280   -4.2420   -0.9630 oh        1 MOL     -0.685322
    119 H53        -3.1450   -2.6280   -2.6520 hn        1 MOL      0.269409
    120 H54        -5.2220   -1.9720   -0.6230 h1        1 MOL      0.094378
    121 H55        -4.8120   -4.4320   -2.2360 h1        1 MOL     -0.008795
    122 H56        -6.4940   -5.1780   -0.7840 ho        1 MOL      0.420706
    123 H57        -4.4470   -5.6010   -0.0870 hc        1 MOL      0.141025
    124 H58        -3.1580   -4.6100   -0.6170 hc        1 MOL      0.141025
    125 H59        -4.1650   -3.8900    0.6690 hc        1 MOL      0.141025
    126 N11        -6.9020   -1.3200   -2.2430 n         1 MOL     -0.516434
    127 C39        -7.9110   -0.7950   -3.1600 c3        1 MOL     -0.040233
    128 C40        -8.4930    0.5600   -2.6030 c         1 MOL      0.676653
    129 O19        -8.7240    1.4800   -3.3760 o         1 MOL     -0.593989
    130 C41        -8.9820   -1.8130   -3.3740 c3        1 MOL      0.455825
    131 C42        -9.9050   -1.4260   -4.4950 c3        1 MOL     -0.390732
    132 O20        -9.6920   -2.2230   -2.2690 oh        1 MOL     -0.646430
    133 H60        -7.1130   -1.1860   -1.2600 hn        1 MOL      0.271848
    134 H61        -7.4440   -0.5810   -4.1190 h1        1 MOL      0.118687
    135 H62        -8.5280   -2.7440   -3.7150 h1        1 MOL     -0.003078
    136 H63        -9.3800   -3.1100   -2.1120 ho        1 MOL      0.402871
    137 H64        -9.2860   -1.3640   -5.3920 hc        1 MOL      0.089230
    138 H65       -10.6350   -2.2430   -4.5290 hc        1 MOL      0.089230
    139 H66       -10.5070   -0.5720   -4.1850 hc        1 MOL      0.089230
    140 N12        -8.7170    0.7850   -1.2690 n         1 MOL     -0.565449
    141 C43        -9.2290    2.0850   -0.7260 c3        1 MOL      0.225616
    142 C44        -8.3720    2.4740    0.5250 c         1 MOL      0.321454
    143 O21        -8.0630    1.6640    1.4230 o         1 MOL     -0.486574
    144 C45       -10.7700    2.0590   -0.3670 c3        1 MOL     -0.207384
    145 C46       -11.5410    2.0680   -1.7050 c3        1 MOL     -0.080045
    146 C47       -13.0410    2.4180   -1.5110 c3        1 MOL      0.027458
    147 C48       -13.9550    1.3190   -0.9220 c3        1 MOL      0.020452
    148 N13       -15.2360    1.9330   -0.4220 n4        1 MOL     -0.216038
    149 H67        -8.6250   -0.0250   -0.6590 hn        1 MOL      0.296821
    150 H68        -9.0140    2.9210   -1.3940 h1        1 MOL      0.070001
    151 H69       -11.0340    2.9220    0.2440 hc        1 MOL      0.087229
    152 H70       -11.0030    1.1430    0.1720 hc        1 MOL      0.087229
    153 H71       -11.5120    1.0670   -2.1320 hc        1 MOL      0.078854
    154 H72       -11.0720    2.7440   -2.4270 hc        1 MOL      0.078854
    155 H73       -13.4000    2.6440   -2.5140 hc        1 MOL      0.010658
    156 H74       -13.1110    3.3210   -0.9010 hc        1 MOL      0.010658
    157 H75       -13.4390    0.8010   -0.1180 hx        1 MOL      0.084204
    158 H76       -14.1600    0.5810   -1.7080 hx        1 MOL      0.084204
    159 H77       -15.6950    2.6230   -0.9900 hn        1 MOL      0.239804
    160 H78       -15.9630    1.2660   -0.1960 hn        1 MOL      0.239804
    161 H79       -15.0880    2.4790    0.4080 hn        1 MOL      0.239804
    162 N14        -8.2230    3.7840    0.7900 n         1 MOL     -0.286159
    163 C49        -7.6190    4.3750    1.9640 c3        1 MOL      0.254601
    164 C50        -6.0220    4.2930    2.0740 c         1 MOL      0.410955
    165 O22        -5.5810    4.0200    3.1620 o         1 MOL     -0.505416
    166 C51        -8.0730    5.8260    2.1230 c3        1 MOL     -0.267232
    167 C52        -8.2120    6.2470    3.6410 c3        1 MOL     -0.267453
    168 C53        -8.9370    7.5490    3.7060 c         1 MOL      0.748837
    169 O23       -10.1850    7.5190    3.9280 o         1 MOL     -0.654270
    170 O24        -8.3380    8.6410    3.7160 o         1 MOL     -0.654270
    171 H80        -8.7760    4.3400    0.1580 hn        1 MOL      0.188868
    172 H81        -8.0330    3.8260    2.8120 h1        1 MOL      0.039974
    173 H82        -8.9870    5.9560    1.5540 hc        1 MOL      0.083660
    174 H83        -7.3360    6.4880    1.6770 hc        1 MOL      0.083660
    175 H84        -7.2400    6.3450    4.1160 hc        1 MOL      0.095429
    176 H85        -8.7870    5.4490    4.1090 hc        1 MOL      0.095429
    177 N15        -5.2510    4.5180    0.9770 n         1 MOL     -0.359166
    178 C54        -5.6300    5.1200   -0.3570 c3        1 MOL      0.028571
    179 H86        -5.9100    4.3250   -1.0480 h1        1 MOL      0.032170
    180 H87        -6.4720    5.7990   -0.2240 h1        1 MOL      0.032170
    181 H88        -4.7800    5.6700   -0.7620 h1        1 MOL      0.032170
    182 H89        -4.2550    4.3930    1.1210 hn        1 MOL      0.281505
    183 Ca1         7.2730    4.5900    0.2800 Ca        1 MOL      1.772490
    184 O25         8.1210    2.7940    2.0740 oh        1 MOL     -0.916965
    185 H90         8.3810    2.9040    2.9900 ho        1 MOL      0.451586
    186 H91         7.8100    1.8820    2.0270 ho        1 MOL      0.451586
    187 O26         7.5870    5.8740    2.5990 oh        1 MOL     -0.916965
    188 H92         8.1220    5.4870    3.2920 ho        1 MOL      0.451586
    189 H93         6.7890    6.1670    3.0440 ho        1 MOL      0.451586
@<TRIPOS>BOND
     1    1    2 1   
     2    1    4 1   
     3    1    5 1   
     4    1    6 1   
     5    2    3 2   
     6    2    7 1   
     7    7    8 1   
     8    7   15 1   
     9    8    9 1   
    10    8   11 1   
    11    8   16 1   
    12    9   10 2   
    13    9   19 1   
    14   11   12 1   
    15   11   17 1   
    16   11   18 1   
    17   12   13 1   
    18   12   14 1   
    19   19   20 1   
    20   19   28 1   
    21   20   21 1   
    22   20   23 1   
    23   20   29 1   
    24   21   22 2   
    25   21   41 1   
    26   23   24 1   
    27   23   30 1   
    28   23   31 1   
    29   24   25 1   
    30   24   32 1   
    31   24   33 1   
    32   25   26 1   
    33   25   34 1   
    34   25   35 1   
    35   26   27 1   
    36   26   36 1   
    37   26   37 1   
    38   27   38 1   
    39   27   39 1   
    40   27   40 1   
    41   41   42 1   
    42   41   49 1   
    43   42   43 1   
    44   42   45 1   
    45   42   50 1   
    46   43   44 2   
    47   43   53 1   
    48   45   46 1   
    49   45   51 1   
    50   45   52 1   
    51   46   47 1   
    52   46   48 1   
    53   53   54 1   
    54   53   57 1   
    55   54   55 1   
    56   54   58 1   
    57   54   59 1   
    58   55   56 2   
    59   55   60 1   
    60   60   61 1   
    61   60   68 1   
    62   61   62 1   
    63   61   64 1   
    64   61   69 1   
    65   62   63 2   
    66   62   72 1   
    67   64   65 1   
    68   64   70 1   
    69   64   71 1   
    70   65   66 1   
    71   65   67 1   
    72   72   73 1   
    73   72   76 1   
    74   73   74 1   
    75   73   77 1   
    76   73   78 1   
    77   74   75 2   
    78   74   79 1   
    79   79   80 1   
    80   79   86 1   
    81   80   81 1   
    82   80   83 1   
    83   80   87 1   
    84   81   82 2   
    85   81   93 1   
    86   83   84 1   
    87   83   85 1   
    88   83   88 1   
    89   84   90 1   
    90   84   91 1   
    91   84   92 1   
    92   85   89 1   
    93   93   94 1   
    94   93  101 1   
    95   94   95 1   
    96   94   97 1   
    97   94  102 1   
    98   95   96 2   
    99   95  112 1   
   100   97   98 1   
   101   97   99 1   
   102   97  103 1   
   103   98  100 1   
   104   98  104 1   
   105   98  105 1   
   106   99  106 1   
   107   99  107 1   
   108   99  108 1   
   109  100  109 1   
   110  100  110 1   
   111  100  111 1   
   112  112  113 1   
   113  112  119 1   
   114  113  114 1   
   115  113  116 1   
   116  113  120 1   
   117  114  115 2   
   118  114  126 1   
   119  116  117 1   
   120  116  118 1   
   121  116  121 1   
   122  117  123 1   
   123  117  124 1   
   124  117  125 1   
   125  118  122 1   
   126  126  127 1   
   127  126  133 1   
   128  127  128 1   
   129  127  130 1   
   130  127  134 1   
   131  128  129 2   
   132  128  140 1   
   133  130  131 1   
   134  130  132 1   
   135  130  135 1   
   136  131  137 1   
   137  131  138 1   
   138  131  139 1   
   139  132  136 1   
   140  140  141 1   
   141  140  149 1   
   142  141  142 1   
   143  141  144 1   
   144  141  150 1   
   145  142  143 2   
   146  142  162 1   
   147  144  145 1   
   148  144  151 1   
   149  144  152 1   
   150  145  146 1   
   151  145  153 1   
   152  145  154 1   
   153  146  147 1   
   154  146  155 1   
   155  146  156 1   
   156  147  148 1   
   157  147  157 1   
   158  147  158 1   
   159  148  159 1   
   160  148  160 1   
   161  148  161 1   
   162  162  163 1   
   163  162  171 1   
   164  163  164 1   
   165  163  166 1   
   166  163  172 1   
   167  164  165 2   
   168  164  177 1   
   169  166  167 1   
   170  166  173 1   
   171  166  174 1   
   172  167  168 1   
   173  167  175 1   
   174  167  176 1   
   175  168  169 1   
   176  168  170 1   
   177  177  178 1   
   178  177  182 1   
   179  178  179 1   
   180  178  180 1   
   181  178  181 1   
   182  184  185 1   
   183  184  186 1   
   184  187  188 1   
   185  187  189 1   
@<TRIPOS>SUBSTRUCTURE
     1 MOL         1 TEMP              0 ****  ****    0 ROOT
