@<TRIPOS>MOLECULE
MOL
  191   184     1     0     0
SMALL
resp


@<TRIPOS>ATOM
      1 C1          5.9870   -2.7970   -3.4570 c3        1 MOL     -0.249003
      2 C2          6.2120   -2.5360   -2.0000 c         1 MOL      0.658520
      3 O1          5.5200   -1.6750   -1.3840 o         1 MOL     -0.596290
      4 H1          6.9440   -2.9880   -3.9430 hc        1 MOL      0.058778
      5 H2          5.3400   -3.6670   -3.5750 hc        1 MOL      0.058778
      6 H3          5.5150   -1.9270   -3.9140 hc        1 MOL      0.058778
      7 N1          7.1700   -3.2370   -1.3820 n         1 MOL     -0.470493
      8 C3          7.7130   -3.0440   -0.0290 c3        1 MOL     -0.178451
      9 C4          8.0550   -1.6000    0.4280 c         1 MOL      0.618327
     10 O2          8.4750   -1.3920    1.5560 o         1 MOL     -0.509394
     11 C5          6.7220   -3.7910    0.9780 c3        1 MOL     -0.164117
     12 C6          7.3860   -4.8400    1.8580 c         1 MOL      0.689033
     13 O3          8.0950   -5.6710    1.3230 o         1 MOL     -0.652014
     14 O4          7.0290   -4.9370    3.0240 o         1 MOL     -0.652014
     15 H4          7.5310   -3.9390   -2.0030 hn        1 MOL      0.316106
     16 H5          8.7120   -3.4840   -0.0150 h1        1 MOL      0.119255
     17 H6          5.9260   -4.3050    0.4400 hc        1 MOL      0.108138
     18 H7          6.2640   -3.1020    1.7030 hc        1 MOL      0.108138
     19 N2          7.9910   -0.5360   -0.4180 n         1 MOL     -0.416273
     20 C7          8.3560    0.8860   -0.0880 c3        1 MOL     -0.026264
     21 C8          7.1390    1.9190    0.0160 c         1 MOL      0.513542
     22 O5          7.4150    3.1020    0.2830 o         1 MOL     -0.533141
     23 C9          9.3300    1.3920   -1.1350 c3        1 MOL      0.081558
     24 C10         8.6840    1.6300   -2.5000 c3        1 MOL     -0.031537
     25 C11         9.7510    2.1480   -3.5820 c3        1 MOL     -0.199851
     26 C12        11.0120    1.2300   -3.5370 c3        1 MOL      0.123669
     27 N3         12.1370    1.7530   -4.2700 n4        1 MOL     -0.197929
     28 H8          7.5710   -0.7220   -1.3170 hn        1 MOL      0.197384
     29 H9          8.8230    0.8600    0.8960 h1        1 MOL      0.127765
     30 H10        10.0680    0.5930   -1.2350 hc        1 MOL      0.005512
     31 H11         9.9010    2.2450   -0.7890 hc        1 MOL      0.005512
     32 H12         7.9480    2.4490   -2.4920 hc        1 MOL      0.043722
     33 H13         8.3400    0.6390   -2.7830 hc        1 MOL      0.043722
     34 H14         9.9020    3.2060   -3.4210 hc        1 MOL      0.079656
     35 H15         9.2840    2.0630   -4.5580 hc        1 MOL      0.079656
     36 H16        10.7420    0.2540   -3.9270 hx        1 MOL      0.038519
     37 H17        11.3730    1.0740   -2.5250 hx        1 MOL      0.038519
     38 H18        12.1680    2.7390   -4.0370 hn        1 MOL      0.206635
     39 H19        12.9440    1.1970   -4.0340 hn        1 MOL      0.206635
     40 H20        12.0240    1.7810   -5.2760 hn        1 MOL      0.206635
     41 N4          5.8370    1.5510   -0.2150 n         1 MOL     -0.339823
     42 C13         4.6630    2.3160    0.0660 c3        1 MOL     -0.346160
     43 C14         4.4630    2.7550    1.6090 c         1 MOL      0.709853
     44 O6          4.8630    2.1130    2.5490 o         1 MOL     -0.452011
     45 C15         3.4620    1.5580   -0.4780 c3        1 MOL      0.297572
     46 C16         2.1910    2.3320   -0.6170 c         1 MOL      0.638328
     47 O7          1.3670    2.2070    0.2790 o         1 MOL     -0.791597
     48 O8          2.0580    3.2860   -1.3550 o         1 MOL     -0.791597
     49 H21         5.7250    0.6060   -0.5640 hn        1 MOL      0.241169
     50 H22         4.7930    3.2050   -0.5510 h1        1 MOL      0.113761
     51 H23         3.3540    0.8310    0.3340 hc        1 MOL     -0.042194
     52 H24         3.7740    1.0420   -1.3880 hc        1 MOL     -0.042194
     53 N5          3.8100    3.9130    1.8530 n         1 MOL     -0.552473
     54 C17         3.4510    4.4780    3.1520 c3        1 MOL     -0.047811
     55 C18         2.4950    3.6570    4.0010 c         1 MOL      0.420783
     56 O9          2.5740    3.6220    5.2290 o         1 MOL     -0.492041
     57 H25         3.5190    4.5200    1.0990 hn        1 MOL      0.356702
     58 H26         3.0460    5.4820    3.0370 h1        1 MOL      0.096490
     59 H27         4.4180    4.6520    3.6240 h1        1 MOL      0.096490
     60 N6          1.5290    2.9830    3.3290 n         1 MOL     -0.305475
     61 C19         0.5670    2.0270    3.9640 c3        1 MOL     -0.224999
     62 C20         1.2150    0.5810    3.9700 c         1 MOL      0.610008
     63 O10         0.6620   -0.4050    4.3640 o         1 MOL     -0.560700
     64 C21        -0.6800    2.0720    3.1070 c3        1 MOL     -0.062164
     65 C22        -1.2810    3.4410    2.8770 c         1 MOL      0.755984
     66 N7         -1.6980    4.1610    3.8840 n         1 MOL     -0.746111
     67 O11        -1.2740    3.9590    1.7420 o         1 MOL     -0.819297
     68 H28         1.4340    3.0880    2.3320 hn        1 MOL      0.287926
     69 H29         0.3350    2.3740    4.9670 h1        1 MOL      0.157591
     70 H30        -1.5210    1.4440    3.3960 hc        1 MOL      0.038925
     71 H31        -0.3710    1.6490    2.1590 hc        1 MOL      0.038925
     72 H32        -1.7040    3.8490    4.8420 hn        1 MOL      0.380866
     73 H33        -2.0870    5.0420    3.5600 hn        1 MOL      0.380866
     74 N8          2.5280    0.4000    3.5380 n         1 MOL     -0.217523
     75 C23         3.1520   -0.8880    3.3990 c3        1 MOL     -0.085101
     76 C24         2.7990   -1.6840    2.1280 c         1 MOL      0.576066
     77 O12         3.3380   -2.7840    1.9730 o         1 MOL     -0.532425
     78 H34         2.9610    1.1800    3.0570 hn        1 MOL      0.141722
     79 H35         2.8630   -1.4930    4.2600 h1        1 MOL      0.094174
     80 H36         4.2260   -0.7690    3.5200 h1        1 MOL      0.094174
     81 N9          1.8460   -1.2660    1.3370 n         1 MOL     -0.424906
     82 C25         1.3150   -2.1090    0.2910 c3        1 MOL      0.053720
     83 C26        -0.1720   -1.7670    0.0110 c         1 MOL      0.650547
     84 O13        -0.6530   -0.6620    0.1690 o         1 MOL     -0.524258
     85 C27         2.2890   -1.8110   -0.9010 c3        1 MOL     -0.063290
     86 C28         1.8860   -2.5130   -2.1920 ca        1 MOL     -0.049553
     87 C29         1.6480   -3.9200   -2.1240 ca        1 MOL      0.018401
     88 C30         1.7630   -1.7390   -3.3910 ca        1 MOL      0.018401
     89 C31         1.1300   -4.4570   -3.3100 ca        1 MOL     -0.434755
     90 C32         1.1910   -2.3460   -4.5220 ca        1 MOL     -0.434755
     91 C33         0.9510   -3.7470   -4.5030 ca        1 MOL      0.466498
     92 O14         0.4110   -4.3660   -5.6030 oh        1 MOL     -0.482043
     93 H37         1.3330   -0.4120    1.4660 hn        1 MOL      0.228947
     94 H38         1.4210   -3.1780    0.4970 h1        1 MOL      0.082950
     95 H39         3.2920   -2.1350   -0.6420 hc        1 MOL      0.049691
     96 H40         2.2680   -0.7270   -0.9590 hc        1 MOL      0.049691
     97 H41         1.6650   -4.4650   -1.1910 ha        1 MOL      0.097463
     98 H42         1.9130   -0.6760   -3.4400 ha        1 MOL      0.097463
     99 H43         0.8830   -5.5070   -3.3590 ha        1 MOL      0.177102
    100 H44         0.9310   -1.8040   -5.4080 ha        1 MOL      0.177102
    101 H45         0.2190   -3.6780   -6.2430 ho        1 MOL      0.356639
    102 N10        -0.9740   -2.7220   -0.3450 n         1 MOL     -0.613928
    103 C34        -2.3970   -2.4770   -0.6720 c3        1 MOL     -0.012417
    104 C35        -3.1040   -1.9660    0.5400 c         1 MOL      0.226494
    105 O15        -4.0770   -1.2510    0.4230 o         1 MOL     -0.396750
    106 C36        -2.9810   -3.6850   -1.4100 c3        1 MOL      0.142234
    107 C37        -2.3610   -3.6530   -2.8630 c3        1 MOL      0.181547
    108 C38        -4.4930   -3.5700   -1.6220 c3        1 MOL     -0.390432
    109 C39        -2.3540   -5.0450   -3.4540 c3        1 MOL      0.006520
    110 H46        -0.6370   -3.6340   -0.6200 hn        1 MOL      0.329219
    111 H47        -2.3990   -1.6560   -1.3960 h1        1 MOL      0.052606
    112 H48        -2.7430   -4.6050   -0.8770 hc        1 MOL      0.020385
    113 H49        -1.3150   -3.3600   -2.7860 hc        1 MOL     -0.040457
    114 H50        -2.8060   -2.9680   -3.5870 hc        1 MOL     -0.040457
    115 H51        -4.8900   -4.4040   -2.2050 hc        1 MOL      0.112065
    116 H52        -5.0190   -3.5990   -0.6610 hc        1 MOL      0.112065
    117 H53        -4.8760   -2.7180   -2.1710 hc        1 MOL      0.112065
    118 H54        -2.0450   -5.7530   -2.6800 hc        1 MOL     -0.016163
    119 H55        -3.3890   -5.3360   -3.6460 hc        1 MOL     -0.016163
    120 H56        -1.7160   -5.1180   -4.3320 hc        1 MOL     -0.016163
    121 N11        -2.5820   -2.2850    1.7500 n         1 MOL     -0.033746
    122 C40        -3.1080   -1.9220    3.0180 c3        1 MOL     -0.460519
    123 C41        -4.5320   -2.3550    3.2560 c         1 MOL      0.608819
    124 O16        -5.1170   -1.8340    4.2680 o         1 MOL     -0.515241
    125 C42        -2.2020   -2.4470    4.0570 c3        1 MOL      0.205349
    126 O17        -2.4410   -3.8480    4.0760 oh        1 MOL     -0.651345
    127 H57        -1.6960   -2.7710    1.7500 hn        1 MOL      0.230989
    128 H58        -3.0820   -0.8380    3.1020 h1        1 MOL      0.191119
    129 H59        -2.4740   -2.0030    5.0230 h1        1 MOL      0.071423
    130 H60        -1.1420   -2.2130    3.9290 h1        1 MOL      0.071423
    131 H61        -2.8440   -4.1310    4.9000 ho        1 MOL      0.437263
    132 N12        -5.1250   -3.2880    2.4640 n         1 MOL     -0.394630
    133 C43        -6.5530   -3.6250    2.5160 c3        1 MOL      0.144270
    134 C44        -7.4680   -2.4070    2.2190 c         1 MOL      0.382684
    135 O18        -8.6210   -2.3340    2.6420 o         1 MOL     -0.508031
    136 C45        -6.9530   -4.4190    3.7440 c3        1 MOL     -0.342318
    137 H62        -4.5620   -3.7120    1.7480 hn        1 MOL      0.272433
    138 H63        -6.6360   -4.3030    1.6680 h1        1 MOL      0.062620
    139 H64        -7.9060   -4.9410    3.7400 hc        1 MOL      0.104649
    140 H65        -6.1780   -5.1490    3.9720 hc        1 MOL      0.104649
    141 H66        -7.0050   -3.7980    4.6340 hc        1 MOL      0.104649
    142 N13        -6.9370   -1.4060    1.4940 n         1 MOL     -0.225290
    143 C46        -7.6920   -0.2150    1.1230 c3        1 MOL      0.261889
    144 C47        -8.0960   -0.1830   -0.3720 c         1 MOL      0.442029
    145 O19        -7.4190   -0.7970   -1.2370 o         1 MOL     -0.461385
    146 C48        -6.8650    0.9930    1.4310 c3        1 MOL     -0.067305
    147 H67        -6.1080   -1.6410    0.9700 hn        1 MOL      0.060805
    148 H68        -8.6030   -0.1690    1.7250 h1        1 MOL     -0.008222
    149 H69        -6.2220    1.1100    0.5590 hc        1 MOL      0.008039
    150 H70        -7.4460    1.9120    1.4960 hc        1 MOL      0.008039
    151 H71        -6.1990    0.8750    2.2870 hc        1 MOL      0.008039
    152 N14        -9.1280    0.6350   -0.6610 n         1 MOL     -0.475667
    153 C49        -9.8250    0.9420   -1.9660 c3        1 MOL      0.009377
    154 C50       -10.1130   -0.2980   -2.8480 c         1 MOL      0.440204
    155 O20       -10.1840   -0.2440   -4.0900 o         1 MOL     -0.498038
    156 C51        -9.0790    2.1400   -2.6530 c3        1 MOL      0.159593
    157 C52        -9.1560    3.4210   -1.7680 c3        1 MOL     -0.187288
    158 C53        -8.5140    4.6390   -2.4580 c         1 MOL      0.651574
    159 O21        -9.1700    5.4430   -3.1660 o         1 MOL     -0.677124
    160 O22        -7.2910    4.8060   -2.2740 o         1 MOL     -0.677124
    161 H72        -9.5670    1.1090    0.1160 hn        1 MOL      0.290572
    162 H73       -10.7880    1.3490   -1.6560 h1        1 MOL      0.056055
    163 H74        -9.6050    2.3210   -3.5830 hc        1 MOL     -0.006149
    164 H75        -8.0350    1.8960   -2.8380 hc        1 MOL     -0.006149
    165 H76        -8.7340    3.3110   -0.7770 hc        1 MOL      0.016533
    166 H77       -10.2050    3.6630   -1.6370 hc        1 MOL      0.016533
    167 N15       -10.2820   -1.4040   -2.1450 n         1 MOL     -0.297821
    168 C54       -10.2400   -2.7420   -2.8090 c3        1 MOL     -0.162728
    169 H78        -9.2240   -2.9460   -3.1480 h1        1 MOL      0.095902
    170 H79       -10.5460   -3.5100   -2.1000 h1        1 MOL      0.095902
    171 H80       -10.9150   -2.7450   -3.6650 h1        1 MOL      0.095902
    172 H81       -10.2070   -1.3460   -1.1410 hn        1 MOL      0.220404
    173 Ca1        -0.4060    3.9180   -0.8250 Ca        1 MOL      1.772484
    174 O23         1.2650    5.7150    0.4940 oh        1 MOL     -0.801633
    175 H82         0.5530    6.1110    0.9930 ho        1 MOL      0.408998
    176 H83         1.7530    6.4620    0.1380 ho        1 MOL      0.408998
    177 O24        -1.9030    6.1630   -0.4110 oh        1 MOL     -0.801633
    178 H84        -2.6280    6.6430   -0.8230 ho        1 MOL      0.408998
    179 H85        -2.1000    6.1690    0.5210 ho        1 MOL      0.408998
    180 O25        -2.7480    4.1960   -2.3730 oh        1 MOL     -0.801633
    181 H86        -3.5190    3.7830   -1.9900 ho        1 MOL      0.408998
    182 H87        -3.0750    4.6720   -3.1370 ho        1 MOL      0.408998
    183 O26         0.0700    5.7590   -2.8090 oh        1 MOL     -0.801633
    184 H88         0.5160    6.5870   -3.0090 ho        1 MOL      0.408998
    185 H89         0.1850    5.2290   -3.6080 ho        1 MOL      0.408998
    186 O27        -0.3510    2.2650   -2.9630 oh        1 MOL     -0.801633
    187 H90        -0.2770    1.3070   -2.9440 ho        1 MOL      0.408998
    188 H91        -1.0890    2.4350   -3.5550 ho        1 MOL      0.408998
    189 O28        -1.8810    1.7780   -0.2930 oh        1 MOL     -0.801633
    190 H92        -1.3930    0.9590   -0.1710 ho        1 MOL      0.408998
    191 H93        -2.5470    1.7660    0.3940 ho        1 MOL      0.408998
@<TRIPOS>BOND
     1    1    2 1   
     2    1    4 1   
     3    1    5 1   
     4    1    6 1   
     5    2    3 2   
     6    2    7 1   
     7    7    8 1   
     8    7   15 1   
     9    8    9 1   
    10    8   11 1   
    11    8   16 1   
    12    9   10 2   
    13    9   19 1   
    14   11   12 1   
    15   11   17 1   
    16   11   18 1   
    17   12   13 1   
    18   12   14 1   
    19   19   20 1   
    20   19   28 1   
    21   20   21 1   
    22   20   23 1   
    23   20   29 1   
    24   21   22 2   
    25   21   41 1   
    26   23   24 1   
    27   23   30 1   
    28   23   31 1   
    29   24   25 1   
    30   24   32 1   
    31   24   33 1   
    32   25   26 1   
    33   25   34 1   
    34   25   35 1   
    35   26   27 1   
    36   26   36 1   
    37   26   37 1   
    38   27   38 1   
    39   27   39 1   
    40   27   40 1   
    41   41   42 1   
    42   41   49 1   
    43   42   43 1   
    44   42   45 1   
    45   42   50 1   
    46   43   44 2   
    47   43   53 1   
    48   45   46 1   
    49   45   51 1   
    50   45   52 1   
    51   46   47 1   
    52   46   48 1   
    53   53   54 1   
    54   53   57 1   
    55   54   55 1   
    56   54   58 1   
    57   54   59 1   
    58   55   56 2   
    59   55   60 1   
    60   60   61 1   
    61   60   68 1   
    62   61   62 1   
    63   61   64 1   
    64   61   69 1   
    65   62   63 2   
    66   62   74 1   
    67   64   65 1   
    68   64   70 1   
    69   64   71 1   
    70   65   66 1   
    71   65   67 2   
    72   66   72 1   
    73   66   73 1   
    74   74   75 1   
    75   74   78 1   
    76   75   76 1   
    77   75   79 1   
    78   75   80 1   
    79   76   77 2   
    80   76   81 1   
    81   81   82 1   
    82   81   93 1   
    83   82   83 1   
    84   82   85 1   
    85   82   94 1   
    86   83   84 2   
    87   83  102 1   
    88   85   86 1   
    89   85   95 1   
    90   85   96 1   
    91   86   87 ar  
    92   86   88 ar  
    93   87   89 ar  
    94   87   97 1   
    95   88   90 ar  
    96   88   98 1   
    97   89   91 ar  
    98   89   99 1   
    99   90   91 ar  
   100   90  100 1   
   101   91   92 1   
   102   92  101 1   
   103  102  103 1   
   104  102  110 1   
   105  103  104 1   
   106  103  106 1   
   107  103  111 1   
   108  104  105 2   
   109  104  121 1   
   110  106  107 1   
   111  106  108 1   
   112  106  112 1   
   113  107  109 1   
   114  107  113 1   
   115  107  114 1   
   116  108  115 1   
   117  108  116 1   
   118  108  117 1   
   119  109  118 1   
   120  109  119 1   
   121  109  120 1   
   122  121  122 1   
   123  121  127 1   
   124  122  123 1   
   125  122  125 1   
   126  122  128 1   
   127  123  124 2   
   128  123  132 1   
   129  125  126 1   
   130  125  129 1   
   131  125  130 1   
   132  126  131 1   
   133  132  133 1   
   134  132  137 1   
   135  133  134 1   
   136  133  136 1   
   137  133  138 1   
   138  134  135 2   
   139  134  142 1   
   140  136  139 1   
   141  136  140 1   
   142  136  141 1   
   143  142  143 1   
   144  142  147 1   
   145  143  144 1   
   146  143  146 1   
   147  143  148 1   
   148  144  145 2   
   149  144  152 1   
   150  146  149 1   
   151  146  150 1   
   152  146  151 1   
   153  152  153 1   
   154  152  161 1   
   155  153  154 1   
   156  153  156 1   
   157  153  162 1   
   158  154  155 2   
   159  154  167 1   
   160  156  157 1   
   161  156  163 1   
   162  156  164 1   
   163  157  158 1   
   164  157  165 1   
   165  157  166 1   
   166  158  159 1   
   167  158  160 1   
   168  167  168 1   
   169  167  172 1   
   170  168  169 1   
   171  168  170 1   
   172  168  171 1   
   173  174  175 1   
   174  174  176 1   
   175  177  178 1   
   176  177  179 1   
   177  180  181 1   
   178  180  182 1   
   179  183  184 1   
   180  183  185 1   
   181  186  187 1   
   182  186  188 1   
   183  189  190 1   
   184  189  191 1   
@<TRIPOS>SUBSTRUCTURE
     1 MOL         1 TEMP              0 ****  ****    0 ROOT
