@<TRIPOS>MOLECULE
MOL
  182   178     1     0     0
SMALL
resp


@<TRIPOS>ATOM
      1 C1          1.2820   -4.0680    6.3000 c3        1 MOL     -0.366717
      2 C2          1.3940   -3.9730    4.7690 c         1 MOL      0.749558
      3 O1          0.5010   -4.3560    4.0100 o         1 MOL     -0.602345
      4 H1          1.1380   -3.0710    6.7160 hc        1 MOL      0.101907
      5 H2          0.4330   -4.6970    6.5650 hc        1 MOL      0.101907
      6 H3          2.1960   -4.5020    6.7060 hc        1 MOL      0.101907
      7 N1          2.4610   -3.3760    4.3340 n         1 MOL     -0.602132
      8 C3          2.6600   -3.0790    2.9200 c3        1 MOL      0.069195
      9 C4          2.7080   -4.2910    1.8930 c         1 MOL      0.682667
     10 O2          3.3870   -5.2620    2.1630 o         1 MOL     -0.556176
     11 C5          3.8210   -2.0960    2.6440 c3        1 MOL     -0.267903
     12 C6          3.5930   -1.1610    1.5330 c         1 MOL      0.631221
     13 O3          4.0870   -0.0220    1.6040 o         1 MOL     -0.680671
     14 O4          3.2510   -1.6070    0.4330 o         1 MOL     -0.680671
     15 H4          3.1890   -3.2890    5.0350 hn        1 MOL      0.335169
     16 H5          1.8580   -2.4310    2.5880 h1        1 MOL     -0.057785
     17 H6          4.7160   -2.6820    2.4260 hc        1 MOL      0.107801
     18 H7          4.0810   -1.4510    3.4840 hc        1 MOL      0.107801
     19 N2          2.0580   -4.0980    0.7370 n         1 MOL     -0.571789
     20 C7          2.1820   -5.0880   -0.3900 c3        1 MOL     -0.039291
     21 C8          3.4620   -5.1000   -1.1410 c         1 MOL      0.516404
     22 O5          3.8780   -6.1090   -1.7020 o         1 MOL     -0.566219
     23 C9          0.8500   -5.1100   -1.1270 c3        1 MOL      0.352853
     24 C10         0.7560   -6.2510   -2.1070 c3        1 MOL      0.055765
     25 C11        -0.6820   -6.5590   -2.4610 c3        1 MOL      0.031418
     26 C12        -0.8600   -7.3930   -3.6860 c3        1 MOL     -0.126665
     27 N3         -2.2470   -7.4910   -4.1630 n4        1 MOL     -0.178708
     28 H8          1.7000   -3.1730    0.5410 hn        1 MOL      0.482380
     29 H9          2.1630   -6.0090    0.1900 h1        1 MOL      0.109072
     30 H10         0.6740   -4.1650   -1.6370 hc        1 MOL     -0.162961
     31 H11        -0.0040   -5.2720   -0.4710 hc        1 MOL     -0.162961
     32 H12         1.2430   -7.0220   -1.5160 hc        1 MOL     -0.016422
     33 H13         1.2970   -6.0790   -3.0410 hc        1 MOL     -0.016422
     34 H14        -1.2380   -5.6440   -2.6680 hc        1 MOL      0.047756
     35 H15        -1.1010   -7.1130   -1.6220 hc        1 MOL      0.047756
     36 H16        -0.6270   -8.4000   -3.3330 hx        1 MOL      0.104444
     37 H17        -0.1550   -6.9780   -4.4050 hx        1 MOL      0.104444
     38 H18        -2.4270   -8.1160   -4.9250 hn        1 MOL      0.231647
     39 H19        -2.8240   -8.0210   -3.5170 hn        1 MOL      0.231647
     40 H20        -2.6640   -6.6160   -4.4610 hn        1 MOL      0.231647
     41 N4          4.1780   -3.9450   -1.1280 n         1 MOL     -0.257409
     42 C13         5.2940   -3.7420   -1.9890 c3        1 MOL      0.165679
     43 C14         6.4720   -3.0420   -1.4030 c         1 MOL      0.240442
     44 O6          7.4860   -3.0020   -2.1720 o         1 MOL     -0.509697
     45 C15         4.8140   -2.8200   -3.1060 c3        1 MOL     -0.407949
     46 C16         4.2870   -1.4820   -2.6150 c         1 MOL      0.998165
     47 O7          3.1100   -1.0720   -2.7820 o         1 MOL     -0.858515
     48 O8          4.9480   -0.5820   -2.0410 o         1 MOL     -0.858515
     49 H21         3.7930   -3.2200   -0.5410 hn        1 MOL      0.042252
     50 H22         5.5810   -4.6400   -2.5370 h1        1 MOL      0.121226
     51 H23         3.9470   -3.2400   -3.6250 hc        1 MOL      0.109781
     52 H24         5.6570   -2.5000   -3.7160 hc        1 MOL      0.109781
     53 N5          6.2940   -2.3730   -0.2660 n         1 MOL     -0.041383
     54 C17         7.3970   -1.8230    0.5750 c3        1 MOL     -0.091104
     55 C18         7.6720   -0.2730    0.4110 c         1 MOL      0.559545
     56 O9          8.6580    0.1240    1.0510 o         1 MOL     -0.562299
     57 H25         5.4050   -2.6220    0.1580 hn        1 MOL      0.131301
     58 H26         8.3330   -2.3180    0.3030 h1        1 MOL      0.084855
     59 H27         7.2660   -2.0700    1.6300 h1        1 MOL      0.084855
     60 N6          6.9950    0.4210   -0.4900 n         1 MOL     -0.467818
     61 C19         7.2290    1.8860   -0.6940 c3        1 MOL      0.285506
     62 C20         5.9780    2.7940   -0.5790 c         1 MOL      0.292069
     63 O10         4.8890    2.2360   -0.6550 o         1 MOL     -0.377963
     64 C21         8.0640    2.2160   -2.0160 c3        1 MOL     -0.352469
     65 C22         7.1940    2.3470   -3.3230 c         1 MOL      0.676954
     66 N7          6.4740    1.3840   -3.7380 n         1 MOL     -0.734327
     67 O11         7.1330    3.4230   -3.9310 o         1 MOL     -0.613966
     68 H28         6.3660   -0.1190   -1.0700 hn        1 MOL      0.336088
     69 H29         7.8640    2.2990    0.0950 h1        1 MOL      0.035602
     70 H30         8.8140    1.4340   -2.1120 hc        1 MOL      0.111750
     71 H31         8.6680    3.1130   -1.8360 hc        1 MOL      0.111750
     72 H32         6.2860    0.5120   -3.2530 hn        1 MOL      0.352790
     73 H33         5.8690    1.6250   -4.5010 hn        1 MOL      0.352790
     74 N8          5.9980    4.0920   -0.3810 n         1 MOL     -0.282475
     75 C23         5.0150    5.0910   -0.5930 c3        1 MOL     -0.285104
     76 C24         3.9090    4.9380    0.4730 c         1 MOL      0.575507
     77 O12         4.2260    4.7830    1.7140 o         1 MOL     -0.497522
     78 H34         6.9200    4.4380   -0.1250 hn        1 MOL      0.289500
     79 H35         4.7050    4.8890   -1.6210 h1        1 MOL      0.147254
     80 H36         5.4700    6.0750   -0.5470 h1        1 MOL      0.147254
     81 N9          2.6660    5.0350    0.0580 n         1 MOL     -0.539068
     82 C25         1.5270    4.6120    0.8320 c3        1 MOL      0.205386
     83 C26         1.5990    3.1810    1.3810 c         1 MOL      0.489982
     84 O13         2.4040    2.3640    1.0230 o         1 MOL     -0.454236
     85 C27         0.2080    4.8650    0.1190 c3        1 MOL     -0.093578
     86 C28         0.0150    6.3200   -0.2200 ca        1 MOL      0.088083
     87 C29        -0.1700    7.2510    0.7580 ca        1 MOL     -0.137262
     88 C30         0.0040    6.6930   -1.5400 ca        1 MOL     -0.137262
     89 C31        -0.2820    8.6250    0.4170 ca        1 MOL     -0.300567
     90 C32        -0.1690    7.9800   -1.9110 ca        1 MOL     -0.300567
     91 C33        -0.2430    8.9930   -0.9540 ca        1 MOL      0.371857
     92 O14        -0.3370   10.2580   -1.3070 oh        1 MOL     -0.453738
     93 H37         2.4830    5.3590   -0.8790 hn        1 MOL      0.297188
     94 H38         1.5480    5.2530    1.7210 h1        1 MOL      0.025806
     95 H39        -0.5800    4.7020    0.8610 hc        1 MOL      0.016960
     96 H40         0.1060    4.2080   -0.7450 hc        1 MOL      0.016960
     97 H41        -0.1950    6.9950    1.8090 ha        1 MOL      0.125278
     98 H42         0.1710    5.9340   -2.2870 ha        1 MOL      0.125278
     99 H43        -0.4200    9.4240    1.1330 ha        1 MOL      0.162192
    100 H44        -0.1000    8.2760   -2.9460 ha        1 MOL      0.162192
    101 H45        -0.5100   10.7190   -0.4930 ho        1 MOL      0.360345
    102 N10         0.6650    2.8990    2.3630 n         1 MOL     -0.621412
    103 C34         0.2580    1.5400    2.9030 c3        1 MOL      0.155799
    104 C35         0.0140    0.5100    1.7920 c         1 MOL      0.045757
    105 O15         0.8740    0.1480    0.9900 o         1 MOL     -0.078210
    106 C36         1.2580    1.0730    3.8910 c3        1 MOL      0.380585
    107 C37         0.8440   -0.0970    4.9250 c3        1 MOL     -0.072796
    108 C38         1.7370    2.1580    4.8820 c3        1 MOL     -0.424372
    109 C39        -0.3880    0.1460    5.7560 c3        1 MOL     -0.296130
    110 H46         0.2190    3.6670    2.8380 hn        1 MOL      0.334012
    111 H47        -0.6830    1.6020    3.4490 h1        1 MOL      0.006840
    112 H48         2.1300    0.6600    3.3970 hc        1 MOL     -0.056617
    113 H49         1.6880   -0.3270    5.5740 hc        1 MOL      0.056949
    114 H50         0.7570   -1.0440    4.3920 hc        1 MOL      0.056949
    115 H51         2.2180    1.7240    5.7560 hc        1 MOL      0.102122
    116 H52         2.5360    2.7170    4.4020 hc        1 MOL      0.102122
    117 H53         0.9870    2.8990    5.1310 hc        1 MOL      0.102122
    118 H54        -0.3180    1.1250    6.2270 hc        1 MOL      0.072129
    119 H55        -1.2730    0.0380    5.1380 hc        1 MOL      0.072129
    120 H56        -0.4520   -0.5950    6.5650 hc        1 MOL      0.072129
    121 N11        -1.1950   -0.1020    1.8220 n         1 MOL     -0.280250
    122 C40        -1.5520   -1.2040    0.9250 c3        1 MOL     -0.188774
    123 C41        -3.0580   -1.3700    0.4850 c         1 MOL      0.568036
    124 O16        -3.3720   -2.2720   -0.3100 o         1 MOL     -0.580476
    125 C42        -0.9180   -2.4380    1.5720 c3        1 MOL      0.325132
    126 O17        -1.3790   -2.6210    2.8860 oh        1 MOL     -0.638484
    127 H57        -1.8950    0.2440    2.4530 hn        1 MOL      0.323120
    128 H58        -1.0600   -0.9560   -0.0170 h1        1 MOL      0.126259
    129 H59         0.1570   -2.3010    1.4240 h1        1 MOL     -0.007041
    130 H60        -1.1680   -3.3120    0.9720 h1        1 MOL     -0.007041
    131 H61        -0.8250   -3.3240    3.2180 ho        1 MOL      0.408945
    132 N12        -3.9290   -0.5650    0.9750 n         1 MOL     -0.387252
    133 C43        -5.3000   -0.3960    0.4990 c3        1 MOL      0.074241
    134 C44        -5.3660    0.2370   -0.9090 c         1 MOL      0.642710
    135 O18        -4.5860    1.1110   -1.2000 o         1 MOL     -0.577594
    136 C45        -6.1520    0.3700    1.5430 c3        1 MOL     -0.161014
    137 H62        -3.6300    0.2280    1.5230 hn        1 MOL      0.218398
    138 H63        -5.7960   -1.3390    0.2710 h1        1 MOL      0.091932
    139 H64        -6.1260   -0.0990    2.5220 hc        1 MOL      0.067480
    140 H65        -5.8560    1.4240    1.6010 hc        1 MOL      0.067480
    141 H66        -7.1930    0.2910    1.2320 hc        1 MOL      0.067480
    142 N13        -6.4120    0.0120   -1.7440 n         1 MOL     -0.652351
    143 C46        -7.6750   -0.7120   -1.4990 c3        1 MOL      0.456809
    144 C47        -8.8970   -0.0910   -2.2260 c         1 MOL      0.285708
    145 O19        -8.6560    0.5020   -3.3330 o         1 MOL     -0.521696
    146 C48        -7.5640   -2.1440   -1.9430 c3        1 MOL     -0.477569
    147 H67        -6.3100    0.4340   -2.6580 hn        1 MOL      0.336475
    148 H68        -7.8590   -0.7020   -0.4220 h1        1 MOL     -0.091478
    149 H69        -7.5890   -2.1560   -3.0310 hc        1 MOL      0.128231
    150 H70        -6.6760   -2.6310   -1.5530 hc        1 MOL      0.128231
    151 H71        -8.4180   -2.7550   -1.6390 hc        1 MOL      0.128231
    152 N14       -10.0890   -0.0630   -1.6610 n         1 MOL     -0.229204
    153 C49       -10.4300   -0.5510   -0.2920 c3        1 MOL     -0.090464
    154 C50       -10.0740    0.3720    0.9050 c         1 MOL      0.540682
    155 O20        -9.8780   -0.0810    2.0450 o         1 MOL     -0.522406
    156 C51       -11.8740   -0.9060   -0.2380 c3        1 MOL     -0.260954
    157 C52       -12.7660    0.3380   -0.3140 c3        1 MOL     -0.158754
    158 C53       -14.0630    0.0740   -1.0070 c         1 MOL      0.676041
    159 O21       -15.0290   -0.5850   -0.4850 o         1 MOL     -0.647220
    160 O22       -14.2170    0.6490   -2.1060 o         1 MOL     -0.647220
    161 H72       -10.8650    0.3440   -2.1560 hn        1 MOL      0.288015
    162 H73        -9.8890   -1.4970   -0.2570 h1        1 MOL      0.088306
    163 H74       -12.0160   -1.4440    0.6940 hc        1 MOL      0.122298
    164 H75       -12.0270   -1.5380   -1.1070 hc        1 MOL      0.122298
    165 H76       -12.2010    1.0910   -0.8490 hc        1 MOL      0.051542
    166 H77       -13.0730    0.7660    0.6440 hc        1 MOL      0.051542
    167 N15        -9.9610    1.6920    0.7060 n         1 MOL     -0.322908
    168 C54        -9.2470    2.5780    1.6180 c3        1 MOL     -0.237674
    169 H78        -9.3750    3.6100    1.2950 h1        1 MOL      0.114219
    170 H79        -9.6450    2.4600    2.6250 h1        1 MOL      0.114219
    171 H80        -8.1870    2.3250    1.6140 h1        1 MOL      0.114219
    172 H81       -10.2380    2.0330   -0.2010 hn        1 MOL      0.270434
    173 Ca1         2.8140    0.5970   -0.8910 Ca        1 MOL      1.649319
    174 O23         0.8410   -1.4450   -1.7440 oh        1 MOL     -0.829769
    175 H82         0.1210   -1.4080   -2.3810 ho        1 MOL      0.407176
    176 H83         1.5880   -1.7540   -2.2480 ho        1 MOL      0.407176
    177 O24         2.9420    2.3410   -3.0130 oh        1 MOL     -0.829769
    178 H84         3.2140    1.8030   -3.7660 ho        1 MOL      0.407176
    179 H85         2.8440    3.2210   -3.3820 ho        1 MOL      0.407176
    180 O25         0.6040    1.6870   -1.7880 oh        1 MOL     -0.829769
    181 H86         0.6490    2.3580   -2.4680 ho        1 MOL      0.407176
    182 H87        -0.2720    1.3160   -1.8800 ho        1 MOL      0.407176
@<TRIPOS>BOND
     1    1    2 1   
     2    1    4 1   
     3    1    5 1   
     4    1    6 1   
     5    2    3 2   
     6    2    7 1   
     7    7    8 1   
     8    7   15 1   
     9    8    9 1   
    10    8   11 1   
    11    8   16 1   
    12    9   10 2   
    13    9   19 1   
    14   11   12 1   
    15   11   17 1   
    16   11   18 1   
    17   12   13 1   
    18   12   14 1   
    19   19   20 1   
    20   19   28 1   
    21   20   21 1   
    22   20   23 1   
    23   20   29 1   
    24   21   22 2   
    25   21   41 1   
    26   23   24 1   
    27   23   30 1   
    28   23   31 1   
    29   24   25 1   
    30   24   32 1   
    31   24   33 1   
    32   25   26 1   
    33   25   34 1   
    34   25   35 1   
    35   26   27 1   
    36   26   36 1   
    37   26   37 1   
    38   27   38 1   
    39   27   39 1   
    40   27   40 1   
    41   41   42 1   
    42   41   49 1   
    43   42   43 1   
    44   42   45 1   
    45   42   50 1   
    46   43   44 2   
    47   43   53 1   
    48   45   46 1   
    49   45   51 1   
    50   45   52 1   
    51   46   47 1   
    52   46   48 1   
    53   53   54 1   
    54   53   57 1   
    55   54   55 1   
    56   54   58 1   
    57   54   59 1   
    58   55   56 2   
    59   55   60 1   
    60   60   61 1   
    61   60   68 1   
    62   61   62 1   
    63   61   64 1   
    64   61   69 1   
    65   62   63 2   
    66   62   74 1   
    67   64   65 1   
    68   64   70 1   
    69   64   71 1   
    70   65   66 1   
    71   65   67 2   
    72   66   72 1   
    73   66   73 1   
    74   74   75 1   
    75   74   78 1   
    76   75   76 1   
    77   75   79 1   
    78   75   80 1   
    79   76   77 2   
    80   76   81 1   
    81   81   82 1   
    82   81   93 1   
    83   82   83 1   
    84   82   85 1   
    85   82   94 1   
    86   83   84 2   
    87   83  102 1   
    88   85   86 1   
    89   85   95 1   
    90   85   96 1   
    91   86   87 ar  
    92   86   88 ar  
    93   87   89 ar  
    94   87   97 1   
    95   88   90 ar  
    96   88   98 1   
    97   89   91 ar  
    98   89   99 1   
    99   90   91 ar  
   100   90  100 1   
   101   91   92 1   
   102   92  101 1   
   103  102  103 1   
   104  102  110 1   
   105  103  104 1   
   106  103  106 1   
   107  103  111 1   
   108  104  105 2   
   109  104  121 1   
   110  106  107 1   
   111  106  108 1   
   112  106  112 1   
   113  107  109 1   
   114  107  113 1   
   115  107  114 1   
   116  108  115 1   
   117  108  116 1   
   118  108  117 1   
   119  109  118 1   
   120  109  119 1   
   121  109  120 1   
   122  121  122 1   
   123  121  127 1   
   124  122  123 1   
   125  122  125 1   
   126  122  128 1   
   127  123  124 2   
   128  123  132 1   
   129  125  126 1   
   130  125  129 1   
   131  125  130 1   
   132  126  131 1   
   133  132  133 1   
   134  132  137 1   
   135  133  134 1   
   136  133  136 1   
   137  133  138 1   
   138  134  135 2   
   139  134  142 1   
   140  136  139 1   
   141  136  140 1   
   142  136  141 1   
   143  142  143 1   
   144  142  147 1   
   145  143  144 1   
   146  143  146 1   
   147  143  148 1   
   148  144  145 2   
   149  144  152 1   
   150  146  149 1   
   151  146  150 1   
   152  146  151 1   
   153  152  153 1   
   154  152  161 1   
   155  153  154 1   
   156  153  156 1   
   157  153  162 1   
   158  154  155 2   
   159  154  167 1   
   160  156  157 1   
   161  156  163 1   
   162  156  164 1   
   163  157  158 1   
   164  157  165 1   
   165  157  166 1   
   166  158  159 1   
   167  158  160 1   
   168  167  168 1   
   169  167  172 1   
   170  168  169 1   
   171  168  170 1   
   172  168  171 1   
   173  174  175 1   
   174  174  176 1   
   175  177  178 1   
   176  177  179 1   
   177  180  181 1   
   178  180  182 1   
@<TRIPOS>SUBSTRUCTURE
     1 MOL         1 TEMP              0 ****  ****    0 ROOT
