@<TRIPOS>MOLECULE
MOL
  178   175     1     0     0
SMALL
resp


@<TRIPOS>ATOM
      1 C1        -12.1520   -6.3880    0.1170 c3        1 MOL     -0.282716
      2 C2        -11.5950   -5.2420    0.9590 c         1 MOL      0.638161
      3 O1        -11.5860   -5.3630    2.2080 o         1 MOL     -0.590984
      4 H1        -13.0290   -6.0420   -0.4320 hc        1 MOL      0.076318
      5 H2        -11.3920   -6.7250   -0.5880 hc        1 MOL      0.076318
      6 H3        -12.4360   -7.2150    0.7690 hc        1 MOL      0.076318
      7 N1        -11.0070   -4.1570    0.4220 n         1 MOL     -0.577779
      8 C3        -10.9980   -3.7380   -0.9550 c3        1 MOL      0.178749
      9 C4        -11.7180   -2.4140   -1.2450 c         1 MOL      0.404350
     10 O2        -11.6460   -1.8480   -2.3470 o         1 MOL     -0.536340
     11 C5         -9.6230   -3.7340   -1.5840 c3        1 MOL     -0.359416
     12 C6         -8.7270   -2.5730   -1.0690 c         1 MOL      0.881447
     13 O3         -7.6460   -2.3700   -1.6310 o         1 MOL     -0.759396
     14 O4         -9.0820   -1.8900   -0.0690 o         1 MOL     -0.759396
     15 H4        -10.6280   -3.4860    1.0660 hn        1 MOL      0.346113
     16 H5        -11.6190   -4.4370   -1.5180 h1        1 MOL      0.068825
     17 H6         -9.7060   -3.7620   -2.6660 hc        1 MOL      0.095317
     18 H7         -9.1020   -4.6540   -1.3320 hc        1 MOL      0.095317
     19 N2        -12.4520   -1.8220   -0.2710 n         1 MOL     -0.478915
     20 C7        -13.2180   -0.6460   -0.4240 c3        1 MOL      0.334166
     21 C8        -12.4290    0.6740   -0.5640 c         1 MOL      0.250192
     22 O5        -13.0920    1.7340   -0.6400 o         1 MOL     -0.546619
     23 C9        -14.1830   -0.5770    0.7340 c3        1 MOL     -0.328796
     24 H8        -12.2510   -2.2170    0.6400 hn        1 MOL      0.267644
     25 H9        -13.8130   -0.8480   -1.3170 h1        1 MOL      0.053022
     26 H10       -14.5920   -1.5720    0.9000 hc        1 MOL      0.087281
     27 H11       -13.6870   -0.2440    1.6440 hc        1 MOL      0.087281
     28 H12       -15.0160    0.0240    0.3770 hc        1 MOL      0.087281
     29 N3        -11.1190    0.7420   -0.4770 n         1 MOL     -0.070863
     30 C10       -10.3570    2.0140   -0.5140 c3        1 MOL     -0.131672
     31 C11        -8.9580    1.8950   -1.2030 c         1 MOL      0.602907
     32 O6         -8.4810    0.8050   -1.4660 o         1 MOL     -0.610221
     33 C12       -10.0890    2.4700    0.9750 c3        1 MOL     -0.039960
     34 C13        -9.4370    1.4020    1.7820 c         1 MOL      0.681084
     35 O7        -10.1060    0.7340    2.6190 o         1 MOL     -0.717201
     36 O8         -8.2200    1.1510    1.5890 o         1 MOL     -0.717201
     37 H13       -10.7320   -0.1160   -0.1350 hn        1 MOL      0.257792
     38 H14       -10.8320    2.8560   -1.0110 h1        1 MOL      0.085675
     39 H15       -11.0370    2.6450    1.4860 hc        1 MOL      0.011376
     40 H16        -9.5730    3.4250    1.0660 hc        1 MOL      0.011376
     41 N4         -8.2950    3.0220   -1.4310 n         1 MOL     -0.461938
     42 C14        -6.9430    2.9750   -2.0770 c3        1 MOL     -0.295459
     43 C15        -5.8210    2.4240   -1.1850 c         1 MOL      0.801607
     44 O9         -6.0800    1.8790   -0.1350 o         1 MOL     -0.615827
     45 H17        -8.6470    3.8880   -1.0510 hn        1 MOL      0.324619
     46 H18        -6.7460    3.9980   -2.3960 h1        1 MOL      0.164774
     47 H19        -7.1020    2.3660   -2.9660 h1        1 MOL      0.164774
     48 N5         -4.5500    2.3700   -1.7040 n         1 MOL     -0.785853
     49 C16        -3.4490    1.6950   -1.0960 c3        1 MOL      0.589734
     50 C17        -2.2850    2.6840   -0.9370 c         1 MOL      0.391693
     51 O10        -2.2380    3.7800   -1.5960 o         1 MOL     -0.536681
     52 C18        -3.0080    0.5280   -2.0680 c3        1 MOL     -0.521889
     53 C19        -4.1310   -0.5720   -2.1900 c         1 MOL      0.703920
     54 N6         -3.9270   -1.7380   -2.7500 n         1 MOL     -0.801158
     55 O11        -5.2080   -0.3660   -1.7470 o         1 MOL     -0.517422
     56 H20        -4.4510    2.7410   -2.6430 hn        1 MOL      0.324443
     57 H21        -3.8240    1.2630   -0.1630 h1        1 MOL     -0.067030
     58 H22        -2.0620    0.1130   -1.7090 hc        1 MOL      0.144254
     59 H23        -2.8110    0.9510   -3.0530 hc        1 MOL      0.144254
     60 H24        -3.1260   -1.7570   -3.3540 hn        1 MOL      0.388063
     61 H25        -4.6770   -2.3750   -2.9970 hn        1 MOL      0.388063
     62 N7         -1.2900    2.3930   -0.1570 n         1 MOL     -0.394267
     63 C20        -0.0730    3.2310    0.0400 c3        1 MOL      0.042935
     64 C21        -0.1140    3.9400    1.3950 c         1 MOL      0.613794
     65 O12        -0.9580    3.6390    2.2450 o         1 MOL     -0.573699
     66 H26        -1.3610    1.4660    0.2250 hn        1 MOL      0.269644
     67 H27         0.1340    3.8790   -0.8080 h1        1 MOL      0.086572
     68 H28         0.7150    2.4890    0.1760 h1        1 MOL      0.086572
     69 N8          0.7840    4.9390    1.5850 n         1 MOL     -0.524647
     70 C22         1.8480    5.3860    0.6700 c3        1 MOL     -0.287226
     71 C23         3.1800    4.5860    1.0010 c         1 MOL      0.447063
     72 O13         4.2110    4.9680    0.4310 o         1 MOL     -0.523865
     73 C24         2.0560    6.8370    0.9200 c3        1 MOL      0.542430
     74 C25         0.8430    7.6350    0.4100 c3        1 MOL     -0.271899
     75 O14         2.3570    7.0950    2.2840 oh        1 MOL     -0.657965
     76 H29         0.7700    5.3440    2.5070 hn        1 MOL      0.322245
     77 H30         1.6690    5.1620   -0.3850 h1        1 MOL      0.178464
     78 H31         2.8710    7.2240    0.3020 h1        1 MOL     -0.038119
     79 H32         3.2690    6.8540    2.4500 ho        1 MOL      0.410762
     80 H33        -0.0580    7.5590    1.0200 hc        1 MOL      0.073236
     81 H34         1.1310    8.6760    0.4940 hc        1 MOL      0.073236
     82 H35         0.5970    7.4440   -0.6390 hc        1 MOL      0.073236
     83 N9          3.1610    3.5780    1.8320 n         1 MOL     -0.227645
     84 C26         4.2570    2.6250    1.7500 c3        1 MOL      0.147451
     85 C27         3.9390    1.5840    0.6460 c         1 MOL      0.413198
     86 O15         2.9170    0.9310    0.6810 o         1 MOL     -0.546111
     87 C28         4.5850    2.0340    3.1410 c3        1 MOL     -0.019643
     88 C29         4.9460    3.1640    4.1100 c3        1 MOL     -0.155639
     89 C30         5.6320    0.8480    3.0250 c3        1 MOL      0.077076
     90 C31         6.3020    3.9570    3.9090 c3        1 MOL     -0.226664
     91 H36         2.2710    3.2750    2.2030 hn        1 MOL      0.201246
     92 H37         5.1330    3.1980    1.4340 h1        1 MOL      0.072844
     93 H38         3.6730    1.5210    3.4480 hc        1 MOL     -0.003291
     94 H39         5.0820    2.6530    5.0630 hc        1 MOL      0.044103
     95 H40         4.1100    3.8610    4.1120 hc        1 MOL      0.044103
     96 H41         5.7530    0.3530    3.9840 hc        1 MOL     -0.002041
     97 H42         5.3110    0.0450    2.3660 hc        1 MOL     -0.002041
     98 H43         6.5730    1.2390    2.6470 hc        1 MOL     -0.002041
     99 H44         7.1410    3.2590    3.9750 hc        1 MOL      0.062621
    100 H45         6.2260    4.6350    3.0530 hc        1 MOL      0.062621
    101 H46         6.4890    4.6240    4.7520 hc        1 MOL      0.062621
    102 N10         4.7370    1.4670   -0.3970 n         1 MOL     -0.356959
    103 C32         6.1870    1.9500   -0.6980 c3        1 MOL      0.071243
    104 C33         7.1020    0.7790   -0.9750 c         1 MOL      0.615532
    105 O16         6.6260   -0.2000   -1.6430 o         1 MOL     -0.517494
    106 C34         6.2160    2.8950   -1.8450 c3        1 MOL     -0.153265
    107 C35         5.4760    2.6590   -3.1920 c         1 MOL      0.720373
    108 O17         4.5290    1.7820   -3.2320 o         1 MOL     -0.713726
    109 O18         5.8170    3.2950   -4.1900 o         1 MOL     -0.713726
    110 H47         4.3610    0.9100   -1.1580 hn        1 MOL      0.293430
    111 H48         6.6410    2.4500    0.1590 h1        1 MOL     -0.014032
    112 H49         7.2350    3.0160   -2.2250 hc        1 MOL     -0.001534
    113 H50         5.7790    3.8270   -1.4640 hc        1 MOL     -0.001534
    114 N11         8.3920    0.8220   -0.5670 n         1 MOL     -0.537587
    115 C36         9.3280   -0.1990   -1.0360 c3        1 MOL      0.255579
    116 C37        10.4400   -0.3900   -0.0410 c         1 MOL      0.195335
    117 O19        10.9290    0.5840    0.5420 o         1 MOL     -0.489593
    118 C38         9.9870    0.3120   -2.3470 c3        1 MOL     -0.081853
    119 C39        11.1140   -0.5010   -2.9750 ca        1 MOL     -0.054169
    120 C40        12.4450   -0.2950   -2.6680 ca        1 MOL     -0.062901
    121 C41        10.7940   -1.5590   -3.8700 ca        1 MOL     -0.062901
    122 C42        13.4340   -1.2430   -3.0130 ca        1 MOL     -0.214228
    123 C43        11.7590   -2.5250   -4.1500 ca        1 MOL     -0.214228
    124 C44        13.0710   -2.4050   -3.7090 ca        1 MOL     -0.002244
    125 H51         8.8300    1.6610   -0.2270 hn        1 MOL      0.318414
    126 H52         8.8100   -1.1120   -1.3120 h1        1 MOL      0.024435
    127 H53        10.3260    1.3240   -2.1080 hc        1 MOL      0.058486
    128 H54         9.2080    0.4330   -3.0920 hc        1 MOL      0.058486
    129 H55        12.8340    0.4970   -2.0460 ha        1 MOL      0.118703
    130 H56         9.7710   -1.6440   -4.2020 ha        1 MOL      0.118703
    131 H57        14.4440   -1.1270   -2.6480 ha        1 MOL      0.122163
    132 H58        11.4610   -3.2650   -4.8770 ha        1 MOL      0.122163
    133 H59        13.8910   -3.0660   -3.9590 ha        1 MOL      0.066533
    134 N12        10.8140   -1.7080    0.2630 n         1 MOL      0.001524
    135 C45        10.3530   -2.8900   -0.4940 c3        1 MOL      0.116690
    136 C46         8.9820   -3.4940   -0.0500 c         1 MOL      0.354025
    137 O20         8.3580   -4.2190   -0.7850 o         1 MOL     -0.517630
    138 C47        11.4480   -3.9240   -0.1520 c3        1 MOL     -0.163236
    139 C48        12.3810   -3.2790    0.8650 c3        1 MOL     -0.019376
    140 C49        11.6400   -2.0880    1.3730 c3        1 MOL     -0.153513
    141 H60        10.5070   -2.6790   -1.5520 h1        1 MOL      0.078711
    142 H61        10.9410   -4.7890    0.2650 hc        1 MOL      0.050614
    143 H62        11.9280   -4.1930   -1.0900 hc        1 MOL      0.050614
    144 H63        12.7200   -3.9080    1.6960 hc        1 MOL      0.023422
    145 H64        13.2970   -2.8740    0.4430 hc        1 MOL      0.023422
    146 H65        11.0180   -2.3260    2.2270 h1        1 MOL      0.082738
    147 H66        12.3470   -1.2990    1.6330 h1        1 MOL      0.082738
    148 N13         8.5430   -3.0840    1.1170 n         1 MOL     -0.260018
    149 C50         7.3120   -3.5200    1.8200 c3        1 MOL      0.108703
    150 C51         7.5320   -3.6290    3.3390 c         1 MOL      0.392695
    151 O21         8.3220   -2.8650    3.9030 o         1 MOL     -0.581867
    152 C52         6.2170   -2.4870    1.4780 c3        1 MOL      0.018315
    153 C53         5.4450   -2.6840    0.2110 c3        1 MOL     -0.092449
    154 C54         4.4810   -3.8650    0.1640 c         1 MOL      0.690145
    155 O22         3.3770   -3.5970   -0.2350 o         1 MOL     -0.718125
    156 O23         4.8830   -5.0220    0.4150 o         1 MOL     -0.718125
    157 H67         9.2020   -2.6150    1.7220 hn        1 MOL      0.207294
    158 H68         7.0490   -4.5240    1.4850 h1        1 MOL      0.090988
    159 H69         6.6960   -1.5110    1.3760 hc        1 MOL     -0.023485
    160 H70         5.5240   -2.4060    2.3100 hc        1 MOL     -0.023485
    161 H71         6.1470   -2.8500   -0.6060 hc        1 MOL      0.041682
    162 H72         4.7970   -1.8090    0.0930 hc        1 MOL      0.041682
    163 N14         6.8050   -4.4370    4.0950 n         1 MOL     -0.369579
    164 C55         5.7310   -5.3130    3.6930 c3        1 MOL      0.105641
    165 H73         5.5980   -5.2530    2.6130 h1        1 MOL      0.005206
    166 H74         5.9740   -6.3390    3.9710 h1        1 MOL      0.005206
    167 H75         4.8090   -5.0100    4.1890 h1        1 MOL      0.005206
    168 H76         6.9340   -4.2190    5.0810 hn        1 MOL      0.264081
    169 Ca1        -6.7550   -0.5910    0.1910 Ca        1 MOL      1.716797
    170 O24        -7.4150   -2.2210    2.2250 oh        1 MOL     -0.832928
    171 H77        -7.9330   -3.0300    2.2660 ho        1 MOL      0.414814
    172 H78        -7.0040   -2.1570    3.0890 ho        1 MOL      0.414814
    173 O25        -5.0690   -2.9870    0.4430 oh        1 MOL     -0.832928
    174 H79        -4.2260   -2.5630    0.2910 ho        1 MOL      0.414814
    175 H80        -4.8620   -3.7920    0.9190 ho        1 MOL      0.414814
    176 O26        -4.6320   -0.3900    1.9920 oh        1 MOL     -0.832928
    177 H81        -4.3870   -1.0140    2.6790 ho        1 MOL      0.414814
    178 H82        -4.2170    0.4350    2.2510 ho        1 MOL      0.414814
@<TRIPOS>BOND
     1    1    2 1   
     2    1    4 1   
     3    1    5 1   
     4    1    6 1   
     5    2    3 2   
     6    2    7 1   
     7    7    8 1   
     8    7   15 1   
     9    8    9 1   
    10    8   11 1   
    11    8   16 1   
    12    9   10 2   
    13    9   19 1   
    14   11   12 1   
    15   11   17 1   
    16   11   18 1   
    17   12   13 1   
    18   12   14 1   
    19   19   20 1   
    20   19   24 1   
    21   20   21 1   
    22   20   23 1   
    23   20   25 1   
    24   21   22 2   
    25   21   29 1   
    26   23   26 1   
    27   23   27 1   
    28   23   28 1   
    29   29   30 1   
    30   29   37 1   
    31   30   31 1   
    32   30   33 1   
    33   30   38 1   
    34   31   32 2   
    35   31   41 1   
    36   33   34 1   
    37   33   39 1   
    38   33   40 1   
    39   34   35 1   
    40   34   36 1   
    41   41   42 1   
    42   41   45 1   
    43   42   43 1   
    44   42   46 1   
    45   42   47 1   
    46   43   44 2   
    47   43   48 1   
    48   48   49 1   
    49   48   56 1   
    50   49   50 1   
    51   49   52 1   
    52   49   57 1   
    53   50   51 2   
    54   50   62 1   
    55   52   53 1   
    56   52   58 1   
    57   52   59 1   
    58   53   54 1   
    59   53   55 2   
    60   54   60 1   
    61   54   61 1   
    62   62   63 1   
    63   62   66 1   
    64   63   64 1   
    65   63   67 1   
    66   63   68 1   
    67   64   65 2   
    68   64   69 1   
    69   69   70 1   
    70   69   76 1   
    71   70   71 1   
    72   70   73 1   
    73   70   77 1   
    74   71   72 2   
    75   71   83 1   
    76   73   74 1   
    77   73   75 1   
    78   73   78 1   
    79   74   80 1   
    80   74   81 1   
    81   74   82 1   
    82   75   79 1   
    83   83   84 1   
    84   83   91 1   
    85   84   85 1   
    86   84   87 1   
    87   84   92 1   
    88   85   86 2   
    89   85  102 1   
    90   87   88 1   
    91   87   89 1   
    92   87   93 1   
    93   88   90 1   
    94   88   94 1   
    95   88   95 1   
    96   89   96 1   
    97   89   97 1   
    98   89   98 1   
    99   90   99 1   
   100   90  100 1   
   101   90  101 1   
   102  102  103 1   
   103  102  110 1   
   104  103  104 1   
   105  103  106 1   
   106  103  111 1   
   107  104  105 2   
   108  104  114 1   
   109  106  107 1   
   110  106  112 1   
   111  106  113 1   
   112  107  108 1   
   113  107  109 1   
   114  114  115 1   
   115  114  125 1   
   116  115  116 1   
   117  115  118 1   
   118  115  126 1   
   119  116  117 2   
   120  116  134 1   
   121  118  119 1   
   122  118  127 1   
   123  118  128 1   
   124  119  120 ar  
   125  119  121 ar  
   126  120  122 ar  
   127  120  129 1   
   128  121  123 ar  
   129  121  130 1   
   130  122  124 ar  
   131  122  131 1   
   132  123  124 ar  
   133  123  132 1   
   134  124  133 1   
   135  134  135 1   
   136  134  140 1   
   137  135  136 1   
   138  135  138 1   
   139  135  141 1   
   140  136  137 2   
   141  136  148 1   
   142  138  139 1   
   143  138  142 1   
   144  138  143 1   
   145  139  140 1   
   146  139  144 1   
   147  139  145 1   
   148  140  146 1   
   149  140  147 1   
   150  148  149 1   
   151  148  157 1   
   152  149  150 1   
   153  149  152 1   
   154  149  158 1   
   155  150  151 2   
   156  150  163 1   
   157  152  153 1   
   158  152  159 1   
   159  152  160 1   
   160  153  154 1   
   161  153  161 1   
   162  153  162 1   
   163  154  155 1   
   164  154  156 1   
   165  163  164 1   
   166  163  168 1   
   167  164  165 1   
   168  164  166 1   
   169  164  167 1   
   170  170  171 1   
   171  170  172 1   
   172  173  174 1   
   173  173  175 1   
   174  176  177 1   
   175  176  178 1   
@<TRIPOS>SUBSTRUCTURE
     1 MOL         1 TEMP              0 ****  ****    0 ROOT
