@<TRIPOS>MOLECULE
MOL
  192   187     1     0     0
SMALL
resp


@<TRIPOS>ATOM
      1 C1         -5.8450   -4.3890    2.7590 c3        1 MOL     -0.150299
      2 C2         -4.5340   -3.8630    2.1080 c         1 MOL      0.539276
      3 O1         -3.9580   -2.9100    2.5580 o         1 MOL     -0.507967
      4 H1         -6.6980   -4.0960    2.1460 hc        1 MOL      0.017311
      5 H2         -5.8060   -5.4750    2.8300 hc        1 MOL      0.017311
      6 H3         -5.9530   -3.9620    3.7570 hc        1 MOL      0.017311
      7 N1         -4.2500   -4.4310    0.9630 n         1 MOL     -0.343940
      8 C3         -3.2400   -3.8630   -0.0110 c3        1 MOL     -0.032439
      9 C4         -1.8020   -3.6780    0.5790 c         1 MOL      0.592429
     10 O2         -1.0100   -2.9010   -0.0150 o         1 MOL     -0.541282
     11 C5         -3.7720   -2.5710   -0.7130 c3        1 MOL     -0.495238
     12 C6         -5.3110   -2.4940   -0.8940 c         1 MOL      0.710381
     13 O3         -5.9270   -1.5560   -0.4440 o         1 MOL     -0.671682
     14 O4         -5.8950   -3.3250   -1.5950 o         1 MOL     -0.671682
     15 H4         -4.9430   -5.0660    0.5890 hn        1 MOL      0.194118
     16 H5         -3.1620   -4.6040   -0.8020 h1        1 MOL      0.124814
     17 H6         -3.1790   -2.3650   -1.6080 hc        1 MOL      0.201984
     18 H7         -3.5590   -1.7310   -0.0500 hc        1 MOL      0.201984
     19 N2         -1.4330   -4.4730    1.6110 n         1 MOL     -0.639946
     20 C7         -0.1410   -4.5370    2.2370 c3        1 MOL      0.423290
     21 C8          0.4840   -5.8110    1.8580 c         1 MOL      0.506830
     22 O5         -0.0420   -6.8710    2.2060 o         1 MOL     -0.621081
     23 C9         -0.2610   -4.2770    3.7530 c3        1 MOL      0.098592
     24 C10        -0.5280   -2.7640    3.8480 c3        1 MOL      0.039106
     25 C11         1.0150   -4.7000    4.5010 c3        1 MOL     -0.257431
     26 C12        -0.5170   -2.0950    5.2700 c3        1 MOL     -0.383782
     27 H8         -2.1720   -5.0770    1.9470 hn        1 MOL      0.264200
     28 H9          0.5380   -3.7810    1.8540 h1        1 MOL     -0.129574
     29 H10        -1.1610   -4.8340    4.0220 hc        1 MOL     -0.023564
     30 H11        -1.5000   -2.5920    3.3780 hc        1 MOL      0.096659
     31 H12         0.2730   -2.2070    3.3660 hc        1 MOL      0.096659
     32 H13         0.8230   -4.4000    5.5330 hc        1 MOL      0.049127
     33 H14         1.1700   -5.7770    4.4600 hc        1 MOL      0.049127
     34 H15         1.8830   -4.2260    4.0470 hc        1 MOL      0.049127
     35 H16         0.4910   -2.1050    5.6720 hc        1 MOL      0.085712
     36 H17        -0.7930   -1.0520    5.0930 hc        1 MOL      0.085712
     37 H18        -1.2900   -2.4950    5.9250 hc        1 MOL      0.085712
     38 N3          1.6960   -5.8490    1.3230 n         1 MOL     -0.385146
     39 C13         2.4180   -4.8500    0.5660 c3        1 MOL     -0.001436
     40 C14         3.1300   -5.5670   -0.6060 c         1 MOL      0.427150
     41 O6          3.4130   -6.7970   -0.5110 o         1 MOL     -0.523111
     42 C15         3.3490   -4.1650    1.4380 c3        1 MOL     -0.079298
     43 C16         4.2220   -3.1020    0.8060 c         1 MOL      0.742312
     44 O7          5.4010   -3.4150    0.5340 o         1 MOL     -0.720474
     45 O8          3.7370   -2.0500    0.4550 o         1 MOL     -0.720474
     46 H19         2.1000   -6.7680    1.2250 hn        1 MOL      0.262265
     47 H20         1.7590   -4.0720    0.1880 h1        1 MOL      0.048908
     48 H21         4.1150   -4.7580    1.9420 hc        1 MOL      0.011754
     49 H22         2.7280   -3.7180    2.2050 hc        1 MOL      0.011754
     50 N4          3.3750   -4.7790   -1.6210 n         1 MOL     -0.215139
     51 C17         4.1030   -5.2350   -2.7630 c3        1 MOL     -0.265488
     52 C18         5.1480   -4.2150   -3.2330 c         1 MOL      0.770866
     53 O9          5.6540   -4.3690   -4.3280 o         1 MOL     -0.629420
     54 H23         2.8890   -3.9070   -1.7130 hn        1 MOL      0.289936
     55 H24         3.3860   -5.3510   -3.5750 h1        1 MOL      0.103425
     56 H25         4.4850   -6.2180   -2.4820 h1        1 MOL      0.103425
     57 N5          5.5950   -3.2500   -2.4280 n         1 MOL     -0.689520
     58 C19         6.7440   -2.3680   -2.8940 c3        1 MOL      0.109024
     59 C20         7.7170   -1.7890   -1.7740 c         1 MOL      0.357868
     60 O10         8.8160   -1.3880   -2.0650 o         1 MOL     -0.559785
     61 C21         6.1820   -1.2010   -3.7430 c3        1 MOL     -0.242969
     62 C22         5.1040   -0.3420   -2.9750 c         1 MOL      0.637276
     63 O11         5.5420    0.3860   -2.0020 o         1 MOL     -0.644304
     64 O12         3.8660   -0.4830   -3.2410 o         1 MOL     -0.644304
     65 H26         5.1290   -3.0590   -1.5530 hn        1 MOL      0.442695
     66 H27         7.4230   -2.9470   -3.5220 h1        1 MOL      0.087728
     67 H28         5.7080   -1.5970   -4.6440 hc        1 MOL      0.053130
     68 H29         7.0400   -0.5480   -3.9030 hc        1 MOL      0.053130
     69 N6          7.1720   -1.7070   -0.5530 n         1 MOL     -0.001504
     70 C23         7.9380   -1.1610    0.5540 c3        1 MOL     -0.396400
     71 C24         8.2680    0.3280    0.4770 c         1 MOL      0.630591
     72 O13         9.0710    0.7630    1.2590 o         1 MOL     -0.632092
     73 H30         6.2890   -2.1260   -0.3320 hn        1 MOL      0.154525
     74 H31         8.8220   -1.7880    0.5830 h1        1 MOL      0.138184
     75 H32         7.3110   -1.3480    1.4240 h1        1 MOL      0.138184
     76 N7          7.5830    1.1180   -0.3920 n         1 MOL     -0.070169
     77 C25         7.5730    2.5970   -0.5290 c3        1 MOL      0.148456
     78 C26         7.3350    3.3310    0.8220 c         1 MOL      0.395152
     79 O14         7.8330    4.3900    1.1530 o         1 MOL     -0.525287
     80 C27         8.7250    3.1370   -1.3410 c3        1 MOL      0.128081
     81 C28         9.2150    2.2480   -2.5000 c3        1 MOL     -0.162496
     82 C29        10.0430    3.0400   -3.5660 c         1 MOL      0.607308
     83 N8         10.9870    2.3760   -4.2080 n         1 MOL     -0.766843
     84 O15         9.8610    4.2390   -3.8190 o         1 MOL     -0.559542
     85 H33         6.9030    0.6900   -1.0150 hn        1 MOL      0.025663
     86 H34         6.6060    2.8490   -0.9600 h1        1 MOL      0.039423
     87 H35         9.5650    3.2880   -0.6560 hc        1 MOL     -0.041833
     88 H36         8.4040    4.1040   -1.7420 hc        1 MOL     -0.041833
     89 H37         8.2850    1.9240   -2.9650 hc        1 MOL      0.043115
     90 H38         9.7270    1.3960   -2.0680 hc        1 MOL      0.043115
     91 H39        11.0750    1.4100   -3.9260 hn        1 MOL      0.347652
     92 H40        11.4130    2.7910   -5.0220 hn        1 MOL      0.347652
     93 N9          6.4960    2.6490    1.6560 n         1 MOL     -0.256247
     94 C30         5.9140    3.1670    2.9330 c3        1 MOL     -0.037286
     95 C31         4.4040    3.2190    3.0630 c         1 MOL      0.461343
     96 O16         3.9440    3.8090    4.0850 o         1 MOL     -0.586209
     97 C32         6.5460    2.4450    4.1220 c3        1 MOL      0.351281
     98 C33         6.0870    0.9530    4.1390 c3        1 MOL     -0.313305
     99 C34         7.9910    2.6090    4.2440 c3        1 MOL     -0.313305
    100 H41         6.2440    1.6860    1.4670 hn        1 MOL      0.217079
    101 H42         6.2850    4.1870    3.0410 h1        1 MOL      0.074993
    102 H43         6.1840    2.8840    5.0540 hc        1 MOL     -0.047101
    103 H44         5.0040    1.0460    4.1410 hc        1 MOL      0.060978
    104 H45         6.5240    0.2880    3.3950 hc        1 MOL      0.060978
    105 H46         6.3580    0.6570    5.1540 hc        1 MOL      0.060978
    106 H47         8.5300    2.1440    3.4130 hc        1 MOL      0.060978
    107 H48         8.2880    3.6520    4.2100 hc        1 MOL      0.060978
    108 H49         8.3990    2.1510    5.1500 hc        1 MOL      0.060978
    109 N10         3.6120    2.7410    2.1110 n         1 MOL     -0.430081
    110 C35         2.1370    2.5090    2.2660 c3        1 MOL      0.398794
    111 C36         1.4970    2.7860    0.9090 c         1 MOL      0.383336
    112 O17         2.1070    2.8020   -0.1760 o         1 MOL     -0.451751
    113 C37         1.8220    1.1930    2.9260 c3        1 MOL      0.097607
    114 C38         0.9020    0.2650    2.1750 c         1 MOL      0.382265
    115 N11         1.4270   -0.6190    1.3680 n         1 MOL     -0.727239
    116 O18        -0.3020    0.1590    2.5100 o         1 MOL     -0.583596
    117 H50         4.0880    2.4350    1.2780 hn        1 MOL      0.180697
    118 H51         1.7930    3.3020    2.9300 h1        1 MOL     -0.016172
    119 H52         1.4490    1.4130    3.9280 hc        1 MOL     -0.012121
    120 H53         2.7990    0.7170    3.0350 hc        1 MOL     -0.012121
    121 H54         2.3940   -0.6860    1.0940 hn        1 MOL      0.418034
    122 H55         0.7680   -1.3260    1.0770 hn        1 MOL      0.418034
    123 N12         0.1650    2.9470    1.0290 n         1 MOL     -0.521614
    124 C39        -0.7700    3.0150   -0.1440 c3        1 MOL      0.035852
    125 C40        -2.2070    3.2640    0.2210 c         1 MOL      0.734459
    126 O19        -2.8400    2.6170    0.9670 o         1 MOL     -0.550385
    127 C41        -0.7290    1.6660   -0.8970 c3        1 MOL     -0.167740
    128 C42        -1.8730    1.4410   -1.9360 ca        1 MOL      0.101066
    129 C43        -1.5910    1.6940   -3.2690 ca        1 MOL     -0.166377
    130 C44        -3.0720    0.7330   -1.5650 ca        1 MOL     -0.166377
    131 C45        -2.5700    1.4980   -4.2720 ca        1 MOL     -0.168735
    132 C46        -4.0030    0.4430   -2.5720 ca        1 MOL     -0.168735
    133 C47        -3.8160    0.8600   -3.8890 ca        1 MOL      0.175691
    134 O20        -4.7800    0.5110   -4.7980 oh        1 MOL     -0.470463
    135 H56        -0.2200    3.0580    1.9500 hn        1 MOL      0.286881
    136 H57        -0.3870    3.7910   -0.7950 h1        1 MOL      0.082602
    137 H58        -0.6700    0.8410   -0.1810 hc        1 MOL      0.103861
    138 H59         0.2190    1.6840   -1.4220 hc        1 MOL      0.103861
    139 H60        -0.6750    2.1730   -3.5880 ha        1 MOL      0.139187
    140 H61        -3.3000    0.4950   -0.5390 ha        1 MOL      0.139187
    141 H62        -2.3500    1.6170   -5.3210 ha        1 MOL      0.096133
    142 H63        -4.9510    0.0080   -2.2950 ha        1 MOL      0.096133
    143 H64        -4.5830    0.7780   -5.7000 ho        1 MOL      0.379891
    144 N13        -2.7000    4.2930   -0.4960 n         1 MOL     -0.720684
    145 C48        -4.1420    4.6870   -0.4000 c3        1 MOL      0.276211
    146 C49        -4.9930    3.9680   -1.5410 c         1 MOL      0.447767
    147 O21        -4.8700    4.2280   -2.7800 o         1 MOL     -0.565967
    148 C50        -4.1990    6.2390   -0.6250 c3        1 MOL      0.026307
    149 C51        -3.2590    6.9860    0.3070 c3        1 MOL     -0.103595
    150 C52        -3.4430    8.4630    0.4010 c         1 MOL      0.683841
    151 O22        -3.4070    9.2130   -0.6400 o         1 MOL     -0.668859
    152 O23        -3.5740    8.9870    1.5430 o         1 MOL     -0.668859
    153 H65        -2.1430    4.9520   -1.0190 hn        1 MOL      0.356082
    154 H66        -4.4550    4.4390    0.6070 h1        1 MOL      0.072048
    155 H67        -5.2270    6.5030   -0.3680 hc        1 MOL     -0.008080
    156 H68        -4.0410    6.4110   -1.6830 hc        1 MOL     -0.008080
    157 H69        -2.2380    6.8630   -0.0630 hc        1 MOL     -0.002089
    158 H70        -3.1790    6.5040    1.2800 hc        1 MOL     -0.002089
    159 N14        -5.9580    3.1360   -1.2490 n         1 MOL     -0.209821
    160 C53        -6.1700    2.4120   -0.0180 c3        1 MOL     -0.493857
    161 C54        -6.5290    3.1950    1.2960 c         1 MOL      0.626601
    162 O24        -7.0080    4.3140    1.2710 o         1 MOL     -0.522925
    163 C55        -7.1960    1.3000   -0.1910 c3        1 MOL     -0.345266
    164 C56        -8.5300    1.9650   -0.4240 c3        1 MOL     -0.129453
    165 C57        -9.7000    0.9580   -0.5350 c         1 MOL      0.763953
    166 O25        -9.5420   -0.2130   -0.8240 o         1 MOL     -0.748104
    167 O26       -10.8590    1.4600   -0.4450 o         1 MOL     -0.748104
    168 H71        -6.4580    2.7570   -2.0360 hn        1 MOL      0.245301
    169 H72        -5.2130    1.9440    0.2050 h1        1 MOL      0.136767
    170 H73        -7.2770    0.5620    0.6080 hc        1 MOL      0.241699
    171 H74        -6.9100    0.7970   -1.1240 hc        1 MOL      0.241699
    172 H75        -8.4880    2.5180   -1.3610 hc        1 MOL      0.065880
    173 H76        -8.7320    2.6260    0.4190 hc        1 MOL      0.065880
    174 N15        -6.1940    2.5510    2.4160 n         1 MOL     -0.173388
    175 C58        -6.2440    3.0590    3.7720 c3        1 MOL     -0.616143
    176 H77        -7.1150    3.7040    3.8850 h1        1 MOL      0.199952
    177 H78        -6.3160    2.2260    4.4710 h1        1 MOL      0.199952
    178 H79        -5.3390    3.6310    3.9800 h1        1 MOL      0.199952
    179 H80        -5.8470    1.6050    2.3530 hn        1 MOL      0.255652
    180 Ca1        -8.3300   -2.4740   -0.9440 Ca        1 MOL      1.460826
    181 O27       -10.5800   -2.2020   -2.6290 oh        1 MOL     -0.676121
    182 H81       -11.2970   -1.6380   -2.3340 ho        1 MOL      0.319820
    183 H82       -10.9750   -3.0710   -2.6900 ho        1 MOL      0.319820
    184 O28        -8.4670   -4.6770   -2.4920 oh        1 MOL     -0.676121
    185 H83        -7.9980   -5.3210   -3.0280 ho        1 MOL      0.319820
    186 H84        -9.2090   -5.1720   -2.1280 ho        1 MOL      0.319820
    187 O29        -7.7010   -1.0610   -3.0370 oh        1 MOL     -0.676121
    188 H85        -7.3040   -0.2190   -2.8120 ho        1 MOL      0.319820
    189 H86        -7.7300   -1.0640   -3.9890 ho        1 MOL      0.319820
    190 O30        -8.4890   -1.7690    1.4990 oh        1 MOL     -0.676121
    191 H87        -8.5470   -2.4000    2.2150 ho        1 MOL      0.319820
    192 H88        -8.7670   -0.9440    1.8860 ho        1 MOL      0.319820
@<TRIPOS>BOND
     1    1    2 1   
     2    1    4 1   
     3    1    5 1   
     4    1    6 1   
     5    2    3 2   
     6    2    7 1   
     7    7    8 1   
     8    7   15 1   
     9    8    9 1   
    10    8   11 1   
    11    8   16 1   
    12    9   10 2   
    13    9   19 1   
    14   11   12 1   
    15   11   17 1   
    16   11   18 1   
    17   12   13 1   
    18   12   14 1   
    19   19   20 1   
    20   19   27 1   
    21   20   21 1   
    22   20   23 1   
    23   20   28 1   
    24   21   22 2   
    25   21   38 1   
    26   23   24 1   
    27   23   25 1   
    28   23   29 1   
    29   24   26 1   
    30   24   30 1   
    31   24   31 1   
    32   25   32 1   
    33   25   33 1   
    34   25   34 1   
    35   26   35 1   
    36   26   36 1   
    37   26   37 1   
    38   38   39 1   
    39   38   46 1   
    40   39   40 1   
    41   39   42 1   
    42   39   47 1   
    43   40   41 2   
    44   40   50 1   
    45   42   43 1   
    46   42   48 1   
    47   42   49 1   
    48   43   44 1   
    49   43   45 1   
    50   50   51 1   
    51   50   54 1   
    52   51   52 1   
    53   51   55 1   
    54   51   56 1   
    55   52   53 2   
    56   52   57 1   
    57   57   58 1   
    58   57   65 1   
    59   58   59 1   
    60   58   61 1   
    61   58   66 1   
    62   59   60 2   
    63   59   69 1   
    64   61   62 1   
    65   61   67 1   
    66   61   68 1   
    67   62   63 1   
    68   62   64 1   
    69   69   70 1   
    70   69   73 1   
    71   70   71 1   
    72   70   74 1   
    73   70   75 1   
    74   71   72 2   
    75   71   76 1   
    76   76   77 1   
    77   76   85 1   
    78   77   78 1   
    79   77   80 1   
    80   77   86 1   
    81   78   79 2   
    82   78   93 1   
    83   80   81 1   
    84   80   87 1   
    85   80   88 1   
    86   81   82 1   
    87   81   89 1   
    88   81   90 1   
    89   82   83 1   
    90   82   84 2   
    91   83   91 1   
    92   83   92 1   
    93   93   94 1   
    94   93  100 1   
    95   94   95 1   
    96   94   97 1   
    97   94  101 1   
    98   95   96 2   
    99   95  109 1   
   100   97   98 1   
   101   97   99 1   
   102   97  102 1   
   103   98  103 1   
   104   98  104 1   
   105   98  105 1   
   106   99  106 1   
   107   99  107 1   
   108   99  108 1   
   109  109  110 1   
   110  109  117 1   
   111  110  111 1   
   112  110  113 1   
   113  110  118 1   
   114  111  112 2   
   115  111  123 1   
   116  113  114 1   
   117  113  119 1   
   118  113  120 1   
   119  114  115 1   
   120  114  116 2   
   121  115  121 1   
   122  115  122 1   
   123  123  124 1   
   124  123  135 1   
   125  124  125 1   
   126  124  127 1   
   127  124  136 1   
   128  125  126 2   
   129  125  144 1   
   130  127  128 1   
   131  127  137 1   
   132  127  138 1   
   133  128  129 ar  
   134  128  130 ar  
   135  129  131 ar  
   136  129  139 1   
   137  130  132 ar  
   138  130  140 1   
   139  131  133 ar  
   140  131  141 1   
   141  132  133 ar  
   142  132  142 1   
   143  133  134 1   
   144  134  143 1   
   145  144  145 1   
   146  144  153 1   
   147  145  146 1   
   148  145  148 1   
   149  145  154 1   
   150  146  147 2   
   151  146  159 1   
   152  148  149 1   
   153  148  155 1   
   154  148  156 1   
   155  149  150 1   
   156  149  157 1   
   157  149  158 1   
   158  150  151 1   
   159  150  152 1   
   160  159  160 1   
   161  159  168 1   
   162  160  161 1   
   163  160  163 1   
   164  160  169 1   
   165  161  162 2   
   166  161  174 1   
   167  163  164 1   
   168  163  170 1   
   169  163  171 1   
   170  164  165 1   
   171  164  172 1   
   172  164  173 1   
   173  165  166 1   
   174  165  167 1   
   175  174  175 1   
   176  174  179 1   
   177  175  176 1   
   178  175  177 1   
   179  175  178 1   
   180  181  182 1   
   181  181  183 1   
   182  184  185 1   
   183  184  186 1   
   184  187  188 1   
   185  187  189 1   
   186  190  191 1   
   187  190  192 1   
@<TRIPOS>SUBSTRUCTURE
     1 MOL         1 TEMP              0 ****  ****    0 ROOT
