@<TRIPOS>MOLECULE
MOL
  192   187     1     0     0
SMALL
resp


@<TRIPOS>ATOM
      1 C1         13.6150    2.8110   -2.3880 c3        1 MOL     -0.437117
      2 C2         12.6800    2.0350   -1.5020 c         1 MOL      0.694770
      3 O1         12.5080    0.8340   -1.5860 o         1 MOL     -0.593626
      4 H1         14.2810    2.1210   -2.9050 hc        1 MOL      0.119449
      5 H2         13.0370    3.3760   -3.1200 hc        1 MOL      0.119449
      6 H3         14.2040    3.4990   -1.7810 hc        1 MOL      0.119449
      7 N1         12.2000    2.6990   -0.4180 n         1 MOL     -0.439034
      8 C3         11.2970    2.1250    0.6250 c3        1 MOL     -0.189307
      9 C4          9.9660    1.5580    0.0800 c         1 MOL      0.636352
     10 O2          9.0470    2.2960   -0.2500 o         1 MOL     -0.511920
     11 C5         11.1990    3.1220    1.7730 c3        1 MOL     -0.003664
     12 C6         11.0110    4.5840    1.3410 c         1 MOL      0.612613
     13 O3         12.0910    5.2170    1.0590 o         1 MOL     -0.677488
     14 O4          9.9080    5.0580    0.9830 o         1 MOL     -0.677488
     15 H4         12.3760    3.6900   -0.2570 hn        1 MOL      0.283968
     16 H5         11.7530    1.2520    1.1030 h1        1 MOL      0.110452
     17 H6         12.0010    3.1080    2.5120 hc        1 MOL      0.022479
     18 H7         10.2790    2.8390    2.2770 hc        1 MOL      0.022479
     19 N2          9.7950    0.2310    0.0430 n         1 MOL     -0.424401
     20 C7          8.6790   -0.4820   -0.5750 c3        1 MOL     -0.109960
     21 C8          7.3790   -0.2760    0.1280 c         1 MOL      0.716700
     22 O5          7.3140   -0.4420    1.3220 o         1 MOL     -0.573875
     23 C9          9.0740   -1.9420   -0.5450 c3        1 MOL     -0.300386
     24 C10         8.2230   -2.8520   -1.4010 c3        1 MOL      0.187356
     25 C11         9.0120   -4.1250   -1.7510 c3        1 MOL     -0.288684
     26 C12         8.1260   -5.2840   -2.4630 c3        1 MOL      0.045201
     27 N3          8.1330   -5.0200   -3.9150 n4        1 MOL     -0.247443
     28 H8         10.6470   -0.3110    0.1520 hn        1 MOL      0.267407
     29 H9          8.5680   -0.1410   -1.6050 h1        1 MOL      0.103855
     30 H10         9.1630   -2.2860    0.4860 hc        1 MOL      0.132083
     31 H11        10.0960   -2.0060   -0.9220 hc        1 MOL      0.132083
     32 H12         7.9490   -2.3420   -2.3180 hc        1 MOL     -0.001060
     33 H13         7.3010   -3.0220   -0.8450 hc        1 MOL     -0.001060
     34 H14         9.2790   -4.4830   -0.7590 hc        1 MOL      0.106563
     35 H15         9.9000   -3.8480   -2.3120 hc        1 MOL      0.106563
     36 H16         7.0710   -5.3430   -2.1700 hx        1 MOL      0.093990
     37 H17         8.5420   -6.2840   -2.3060 hx        1 MOL      0.093990
     38 H18         9.0900   -4.8080   -4.1470 hn        1 MOL      0.241429
     39 H19         7.8230   -5.7760   -4.5130 hn        1 MOL      0.241429
     40 H20         7.6570   -4.1420   -4.1090 hn        1 MOL      0.241429
     41 N4          6.3440    0.1690   -0.6120 n         1 MOL     -0.515202
     42 C13         5.0520    0.4360   -0.0170 c3        1 MOL      0.410619
     43 C14         4.1080   -0.7850   -0.2970 c         1 MOL      0.144904
     44 O6          4.1010   -1.3360   -1.4230 o         1 MOL     -0.556639
     45 C15         4.5300    1.7170   -0.6820 c3        1 MOL     -0.122414
     46 C16         5.4710    2.9170   -0.5880 c         1 MOL      0.614547
     47 O7          5.5460    3.6700    0.4280 o         1 MOL     -0.756851
     48 O8          6.3020    3.0230   -1.5230 o         1 MOL     -0.756851
     49 H21         6.4910    0.1620   -1.6220 hn        1 MOL      0.279994
     50 H22         5.1760    0.7000    1.0280 h1        1 MOL      0.017298
     51 H23         3.6650    2.0360   -0.1010 hc        1 MOL      0.055471
     52 H24         4.3240    1.4890   -1.7370 hc        1 MOL      0.055471
     53 N5          3.2670   -1.3020    0.6120 n         1 MOL      0.007617
     54 C17         3.0350   -0.9530    2.0120 c3        1 MOL     -0.375174
     55 C18         2.4720   -2.1850    2.8130 c         1 MOL      0.549505
     56 O9          2.5290   -3.3460    2.3040 o         1 MOL     -0.545844
     57 H25         2.8260   -2.1320    0.2400 hn        1 MOL      0.196601
     58 H26         2.4920   -0.0190    2.1850 h1        1 MOL      0.127627
     59 H27         4.0590   -0.8140    2.3640 h1        1 MOL      0.127627
     60 N6          1.8540   -1.9670    3.9530 n         1 MOL     -0.206069
     61 C19         1.1180   -2.9790    4.6840 c3        1 MOL     -0.348744
     62 C20         0.0540   -3.7020    3.7860 c         1 MOL      0.724885
     63 O10        -1.0150   -3.1490    3.4150 o         1 MOL     -0.526028
     64 C21         0.4260   -2.2720    5.9080 c3        1 MOL     -0.101056
     65 C22        -0.0450   -3.1800    7.0010 c         1 MOL      0.630339
     66 O11        -1.3050   -3.2600    7.2090 o         1 MOL     -0.619283
     67 O12         0.7970   -3.8260    7.6780 o         1 MOL     -0.619283
     68 H28         1.8140   -1.0530    4.3780 hn        1 MOL      0.260419
     69 H29         1.8930   -3.6610    5.0320 h1        1 MOL      0.127800
     70 H30        -0.3370   -1.5850    5.5630 hc        1 MOL      0.057153
     71 H31         1.2520   -1.6960    6.3290 hc        1 MOL      0.057153
     72 N7          0.2980   -4.9310    3.3930 n         1 MOL     -0.420976
     73 C23        -0.5550   -5.8200    2.6120 c3        1 MOL     -0.126700
     74 C24        -0.8310   -5.2500    1.1850 c         1 MOL      0.453310
     75 O13        -1.7720   -5.6760    0.4950 o         1 MOL     -0.579976
     76 H32         1.2710   -5.1880    3.4630 hn        1 MOL      0.270195
     77 H33        -1.4750   -5.9090    3.1880 h1        1 MOL      0.128727
     78 H34        -0.1210   -6.8080    2.5010 h1        1 MOL      0.128727
     79 N8          0.1200   -4.4240    0.6900 n         1 MOL     -0.077314
     80 C25         0.1990   -3.8330   -0.6580 c3        1 MOL     -0.029847
     81 C26        -0.2210   -2.3280   -0.7250 c         1 MOL      0.315347
     82 O14        -0.3000   -1.6890    0.3170 o         1 MOL     -0.470404
     83 C27         1.5120   -4.1020   -1.4100 c3        1 MOL      0.222405
     84 C28         1.9620   -5.5850   -1.2710 c3        1 MOL     -0.327817
     85 O15         1.3980   -3.8660   -2.7590 oh        1 MOL     -0.598923
     86 H35         0.8120   -4.1210    1.3580 hn        1 MOL      0.133587
     87 H36        -0.6330   -4.2810   -1.2060 h1        1 MOL      0.102969
     88 H37         2.2690   -3.4800   -0.9350 h1        1 MOL      0.028411
     89 H38         2.2840   -4.0180   -3.1020 ho        1 MOL      0.416058
     90 H39         1.2650   -6.1640   -1.8790 hc        1 MOL      0.077303
     91 H40         2.9240   -5.7830   -1.7370 hc        1 MOL      0.077303
     92 H41         1.9140   -5.9860   -0.2590 hc        1 MOL      0.077303
     93 N9         -0.4590   -1.8110   -1.9170 n         1 MOL     -0.157075
     94 C29        -0.9750   -0.4930   -2.0220 c3        1 MOL     -0.122548
     95 C30        -2.4280   -0.4580   -1.4420 c         1 MOL      0.658109
     96 O16        -2.8030    0.3630   -0.6820 o         1 MOL     -0.545882
     97 C31        -1.0110    0.0050   -3.5230 c3        1 MOL      0.058178
     98 C32         0.3720   -0.1860   -4.3080 c3        1 MOL     -0.146839
     99 C33        -1.2590    1.5100   -3.5600 c3        1 MOL     -0.246514
    100 C34         1.6350    0.5000   -3.7790 c3        1 MOL     -0.093666
    101 H42        -0.3480   -2.3740   -2.7540 hn        1 MOL      0.249211
    102 H43        -0.4330    0.1620   -1.3460 h1        1 MOL      0.098183
    103 H44        -1.8100   -0.4860   -4.0750 hc        1 MOL      0.034694
    104 H45         0.2460    0.2930   -5.2760 hc        1 MOL      0.043010
    105 H46         0.5810   -1.2460   -4.4670 hc        1 MOL      0.043010
    106 H47        -0.7450    2.0850   -2.7910 hc        1 MOL      0.073977
    107 H48        -1.0490    1.9790   -4.5180 hc        1 MOL      0.073977
    108 H49        -2.3020    1.6830   -3.3130 hc        1 MOL      0.073977
    109 H50         2.4540    0.2480   -4.4410 hc        1 MOL      0.037876
    110 H51         1.4640    1.5750   -3.7080 hc        1 MOL      0.037876
    111 H52         1.9460    0.2150   -2.7660 hc        1 MOL      0.037876
    112 N10        -3.1570   -1.5620   -1.6700 n         1 MOL     -0.538208
    113 C35        -4.2960   -1.9310   -0.8410 c3        1 MOL      0.153108
    114 C36        -5.4810   -2.2250   -1.7860 c         1 MOL      0.593167
    115 O17        -5.3510   -2.7240   -2.9530 o         1 MOL     -0.520781
    116 C37        -3.9700   -3.2560   -0.0930 c3        1 MOL      0.293033
    117 C38        -5.1080   -3.9880    0.6160 c3        1 MOL     -0.376077
    118 O18        -3.4040   -4.1640   -1.0600 oh        1 MOL     -0.672749
    119 H53        -2.7170   -2.3110   -2.1930 hn        1 MOL      0.252758
    120 H54        -4.5760   -1.1790   -0.1050 h1        1 MOL      0.056347
    121 H55        -3.2270   -3.0190    0.6700 h1        1 MOL      0.047786
    122 H56        -3.0470   -4.8780   -0.5280 ho        1 MOL      0.446790
    123 H57        -5.9000   -4.3160   -0.0460 hc        1 MOL      0.097167
    124 H58        -4.7320   -4.8960    1.1000 hc        1 MOL      0.097167
    125 H59        -5.6270   -3.3330    1.3090 hc        1 MOL      0.097167
    126 N11        -6.6720   -1.7590   -1.3650 n         1 MOL     -0.675369
    127 C39        -7.9530   -2.1180   -2.0810 c3        1 MOL      0.094994
    128 C40        -8.9650   -1.0100   -1.9650 c         1 MOL      0.728970
    129 O19        -9.6770   -0.7660   -2.9570 o         1 MOL     -0.603170
    130 C41        -8.4670   -3.4830   -1.7430 c3        1 MOL      0.345109
    131 C42        -9.5880   -3.9300   -2.5660 c3        1 MOL     -0.429008
    132 O20        -8.7550   -3.6920   -0.4190 oh        1 MOL     -0.663501
    133 H60        -6.7770   -1.4540   -0.4130 hn        1 MOL      0.330188
    134 H61        -7.7380   -2.2920   -3.1340 h1        1 MOL      0.072032
    135 H62        -7.6100   -4.1470   -1.8880 h1        1 MOL      0.023799
    136 H63        -9.0710   -4.5990   -0.3160 ho        1 MOL      0.417055
    137 H64        -9.8680   -4.9460   -2.2940 hc        1 MOL      0.105287
    138 H65       -10.4440   -3.2500   -2.4900 hc        1 MOL      0.105287
    139 H66        -9.3540   -3.8850   -3.6370 hc        1 MOL      0.105287
    140 N12        -9.0410   -0.3550   -0.7970 n         1 MOL     -0.648316
    141 C43        -9.9740    0.7200   -0.5580 c3        1 MOL      0.216655
    142 C44        -9.4230    1.7490    0.3860 c         1 MOL      0.442584
    143 O21        -8.8990    1.3600    1.3930 o         1 MOL     -0.486623
    144 C45       -11.3640    0.1910   -0.0500 c3        1 MOL     -0.227257
    145 C46       -12.5130    1.2680    0.0020 c3        1 MOL      0.074049
    146 C47       -13.1540    1.3660   -1.3870 c3        1 MOL     -0.194626
    147 C48       -14.4580    2.0740   -1.4400 c3        1 MOL      0.042152
    148 N13       -15.5540    1.6960   -0.5420 n4        1 MOL     -0.192020
    149 H67        -8.4580   -0.6960   -0.0580 hn        1 MOL      0.347046
    150 H68       -10.1090    1.2370   -1.5160 h1        1 MOL      0.026388
    151 H69       -11.2720   -0.1460    0.9870 hc        1 MOL      0.091357
    152 H70       -11.6680   -0.6400   -0.6780 hc        1 MOL      0.091357
    153 H71       -12.2500    2.2170    0.4700 hc        1 MOL      0.008817
    154 H72       -13.2790    0.8080    0.6210 hc        1 MOL      0.008817
    155 H73       -13.3570    0.3580   -1.7410 hc        1 MOL      0.088918
    156 H74       -12.4050    1.8280   -2.0300 hc        1 MOL      0.088918
    157 H75       -14.8460    2.1420   -2.4510 hx        1 MOL      0.072244
    158 H76       -14.1720    3.0940   -1.1970 hx        1 MOL      0.072244
    159 H77       -15.2790    1.4690    0.3920 hn        1 MOL      0.249876
    160 H78       -16.3230    2.3660   -0.4890 hn        1 MOL      0.249876
    161 H79       -16.0320    0.8740   -0.9010 hn        1 MOL      0.249876
    162 N14        -9.6020    3.0380    0.1480 n         1 MOL     -0.487615
    163 C49        -8.9930    4.0320    1.0650 c3        1 MOL      0.152926
    164 C50        -7.4380    4.0050    1.1830 c         1 MOL      0.461965
    165 O22        -6.8240    4.0750    2.2640 o         1 MOL     -0.509097
    166 C51        -9.5290    5.4500    0.8080 c3        1 MOL      0.128923
    167 C52       -10.9710    5.6230    1.3360 c3        1 MOL     -0.299392
    168 C53       -11.4040    7.0690    1.3940 c         1 MOL      0.712965
    169 O23       -10.5910    8.0380    1.2890 o         1 MOL     -0.685346
    170 O24       -12.6540    7.2540    1.5040 o         1 MOL     -0.685346
    171 H80       -10.2320    3.3690   -0.5670 hn        1 MOL      0.312618
    172 H81        -9.3470    3.8170    2.0750 h1        1 MOL      0.043416
    173 H82        -9.5340    5.6450   -0.2650 hc        1 MOL      0.005923
    174 H83        -8.8030    6.1000    1.3000 hc        1 MOL      0.005923
    175 H84       -10.9680    5.3770    2.4030 hc        1 MOL      0.054421
    176 H85       -11.7720    5.0530    0.8610 hc        1 MOL      0.054421
    177 N15        -6.6990    3.8590    0.0370 n         1 MOL     -0.399798
    178 C54        -6.9310    4.5500   -1.2120 c3        1 MOL     -0.011983
    179 H86        -6.6070    3.9210   -2.0410 h1        1 MOL      0.035700
    180 H87        -7.9940    4.7670   -1.3160 h1        1 MOL      0.035700
    181 H88        -6.3670    5.4820   -1.2220 h1        1 MOL      0.035700
    182 H89        -5.7860    3.5010    0.2420 hn        1 MOL      0.300064
    183 Ca1         7.7480    4.6460   -0.2200 Ca        1 MOL      1.767585
    184 O25         7.8090    3.5530    2.2790 oh        1 MOL     -0.907679
    185 H90         7.2010    2.9050    2.6290 ho        1 MOL      0.443278
    186 H91         7.9710    4.1520    3.0130 ho        1 MOL      0.443278
    187 O26         9.1780    4.3170   -2.4420 oh        1 MOL     -0.907679
    188 H92         9.3470    3.6760   -3.1260 ho        1 MOL      0.443278
    189 H93         9.6730    5.0930   -2.6950 ho        1 MOL      0.443278
    190 O27         6.7230    6.5240    1.5490 oh        1 MOL     -0.907679
    191 H94         6.7370    7.3460    2.0320 ho        1 MOL      0.443278
    192 H95         6.0380    6.0110    1.9690 ho        1 MOL      0.443278
@<TRIPOS>BOND
     1    1    2 1   
     2    1    4 1   
     3    1    5 1   
     4    1    6 1   
     5    2    3 2   
     6    2    7 1   
     7    7    8 1   
     8    7   15 1   
     9    8    9 1   
    10    8   11 1   
    11    8   16 1   
    12    9   10 2   
    13    9   19 1   
    14   11   12 1   
    15   11   17 1   
    16   11   18 1   
    17   12   13 1   
    18   12   14 1   
    19   19   20 1   
    20   19   28 1   
    21   20   21 1   
    22   20   23 1   
    23   20   29 1   
    24   21   22 2   
    25   21   41 1   
    26   23   24 1   
    27   23   30 1   
    28   23   31 1   
    29   24   25 1   
    30   24   32 1   
    31   24   33 1   
    32   25   26 1   
    33   25   34 1   
    34   25   35 1   
    35   26   27 1   
    36   26   36 1   
    37   26   37 1   
    38   27   38 1   
    39   27   39 1   
    40   27   40 1   
    41   41   42 1   
    42   41   49 1   
    43   42   43 1   
    44   42   45 1   
    45   42   50 1   
    46   43   44 2   
    47   43   53 1   
    48   45   46 1   
    49   45   51 1   
    50   45   52 1   
    51   46   47 1   
    52   46   48 1   
    53   53   54 1   
    54   53   57 1   
    55   54   55 1   
    56   54   58 1   
    57   54   59 1   
    58   55   56 2   
    59   55   60 1   
    60   60   61 1   
    61   60   68 1   
    62   61   62 1   
    63   61   64 1   
    64   61   69 1   
    65   62   63 2   
    66   62   72 1   
    67   64   65 1   
    68   64   70 1   
    69   64   71 1   
    70   65   66 1   
    71   65   67 1   
    72   72   73 1   
    73   72   76 1   
    74   73   74 1   
    75   73   77 1   
    76   73   78 1   
    77   74   75 2   
    78   74   79 1   
    79   79   80 1   
    80   79   86 1   
    81   80   81 1   
    82   80   83 1   
    83   80   87 1   
    84   81   82 2   
    85   81   93 1   
    86   83   84 1   
    87   83   85 1   
    88   83   88 1   
    89   84   90 1   
    90   84   91 1   
    91   84   92 1   
    92   85   89 1   
    93   93   94 1   
    94   93  101 1   
    95   94   95 1   
    96   94   97 1   
    97   94  102 1   
    98   95   96 2   
    99   95  112 1   
   100   97   98 1   
   101   97   99 1   
   102   97  103 1   
   103   98  100 1   
   104   98  104 1   
   105   98  105 1   
   106   99  106 1   
   107   99  107 1   
   108   99  108 1   
   109  100  109 1   
   110  100  110 1   
   111  100  111 1   
   112  112  113 1   
   113  112  119 1   
   114  113  114 1   
   115  113  116 1   
   116  113  120 1   
   117  114  115 2   
   118  114  126 1   
   119  116  117 1   
   120  116  118 1   
   121  116  121 1   
   122  117  123 1   
   123  117  124 1   
   124  117  125 1   
   125  118  122 1   
   126  126  127 1   
   127  126  133 1   
   128  127  128 1   
   129  127  130 1   
   130  127  134 1   
   131  128  129 2   
   132  128  140 1   
   133  130  131 1   
   134  130  132 1   
   135  130  135 1   
   136  131  137 1   
   137  131  138 1   
   138  131  139 1   
   139  132  136 1   
   140  140  141 1   
   141  140  149 1   
   142  141  142 1   
   143  141  144 1   
   144  141  150 1   
   145  142  143 2   
   146  142  162 1   
   147  144  145 1   
   148  144  151 1   
   149  144  152 1   
   150  145  146 1   
   151  145  153 1   
   152  145  154 1   
   153  146  147 1   
   154  146  155 1   
   155  146  156 1   
   156  147  148 1   
   157  147  157 1   
   158  147  158 1   
   159  148  159 1   
   160  148  160 1   
   161  148  161 1   
   162  162  163 1   
   163  162  171 1   
   164  163  164 1   
   165  163  166 1   
   166  163  172 1   
   167  164  165 2   
   168  164  177 1   
   169  166  167 1   
   170  166  173 1   
   171  166  174 1   
   172  167  168 1   
   173  167  175 1   
   174  167  176 1   
   175  168  169 1   
   176  168  170 1   
   177  177  178 1   
   178  177  182 1   
   179  178  179 1   
   180  178  180 1   
   181  178  181 1   
   182  184  185 1   
   183  184  186 1   
   184  187  188 1   
   185  187  189 1   
   186  190  191 1   
   187  190  192 1   
@<TRIPOS>SUBSTRUCTURE
     1 MOL         1 TEMP              0 ****  ****    0 ROOT
