@<TRIPOS>MOLECULE
MOL
  181   177     1     0     0
SMALL
resp


@<TRIPOS>ATOM
      1 C1          9.3410    6.9420   -2.3820 c3        1 MOL     -0.324682
      2 C2          8.8590    6.3600   -0.9790 c         1 MOL      0.760174
      3 O1          8.3630    7.1720   -0.2180 o         1 MOL     -0.599630
      4 H1          8.5390    7.5330   -2.8230 hc        1 MOL      0.082341
      5 H2         10.2170    7.5730   -2.2320 hc        1 MOL      0.082341
      6 H3          9.5950    6.1190   -3.0500 hc        1 MOL      0.082341
      7 N1          9.0490    5.0660   -0.6320 n         1 MOL     -0.683048
      8 C3          9.8460    4.0220   -1.3240 c3        1 MOL      0.053589
      9 C4         10.6050    2.9910   -0.3900 c         1 MOL      0.639228
     10 O2         11.5140    2.3450   -0.8370 o         1 MOL     -0.602497
     11 C5          8.9520    3.2370   -2.2760 c3        1 MOL     -0.230943
     12 C6          7.7850    2.4960   -1.6610 c         1 MOL      0.832966
     13 O3          7.6710    2.1000   -0.4800 o         1 MOL     -0.759906
     14 O4          6.9630    2.0560   -2.4890 o         1 MOL     -0.759906
     15 H4          8.5380    4.7960    0.1950 hn        1 MOL      0.322342
     16 H5         10.5720    4.5780   -1.9120 h1        1 MOL      0.063974
     17 H6          9.5030    2.5680   -2.9290 hc        1 MOL      0.064980
     18 H7          8.5150    4.0720   -2.8250 hc        1 MOL      0.064980
     19 N2         10.2090    2.8830    0.8250 n         1 MOL     -0.656697
     20 C7         10.9740    2.1980    1.9140 c3        1 MOL      0.502678
     21 C8         10.3910    0.8550    2.3180 c         1 MOL      0.263666
     22 O5         10.9550    0.2550    3.2450 o         1 MOL     -0.562122
     23 C9         11.1640    3.2330    3.0710 c3        1 MOL     -0.513197
     24 H8          9.3750    3.3520    1.1430 hn        1 MOL      0.372752
     25 H9         11.9530    1.9530    1.4870 h1        1 MOL      0.005098
     26 H10        11.8110    2.9230    3.8920 hc        1 MOL      0.134078
     27 H11        11.7280    4.0660    2.6550 hc        1 MOL      0.134078
     28 H12        10.1670    3.4120    3.4850 hc        1 MOL      0.134078
     29 N3          9.3560    0.4200    1.6150 n         1 MOL      0.026807
     30 C10         8.7760   -0.9370    1.9550 c3        1 MOL     -0.189362
     31 C11         8.2980   -1.5610    0.6270 c         1 MOL      0.246276
     32 O6          8.0510   -0.8250   -0.3070 o         1 MOL     -0.410611
     33 C12         7.5550   -0.7070    2.9310 c3        1 MOL      0.145375
     34 C13         6.8010    0.5460    2.5410 c         1 MOL      0.653515
     35 O7          7.0690    1.6220    3.1400 o         1 MOL     -0.712423
     36 O8          5.9880    0.4470    1.5640 o         1 MOL     -0.712423
     37 H13         8.9500    0.9320    0.8430 hn        1 MOL      0.127249
     38 H14         9.4220   -1.6870    2.4060 h1        1 MOL      0.091607
     39 H15         7.8930   -0.6180    3.9640 hc        1 MOL     -0.033050
     40 H16         6.8650   -1.5480    2.8930 hc        1 MOL     -0.033050
     41 N4          8.1510   -2.8900    0.5870 n         1 MOL     -0.093266
     42 C14         7.6170   -3.6040   -0.5700 c3        1 MOL     -0.419667
     43 C15         6.2280   -3.2500   -1.0010 c         1 MOL      0.888903
     44 O9          5.5910   -2.2770   -0.6010 o         1 MOL     -0.613117
     45 H17         8.5690   -3.4050    1.3500 hn        1 MOL      0.232805
     46 H18         7.5460   -4.6520   -0.2920 h1        1 MOL      0.146926
     47 H19         8.2210   -3.3670   -1.4550 h1        1 MOL      0.146926
     48 N5          5.5800   -4.1410   -1.7340 n         1 MOL     -0.901135
     49 C16         4.1940   -3.9560   -2.2850 c3        1 MOL      0.384919
     50 C17         3.2230   -4.4440   -1.2900 c         1 MOL      0.695958
     51 O10         3.3560   -5.4880   -0.6560 o         1 MOL     -0.558498
     52 C18         4.0340   -4.7020   -3.6050 c3        1 MOL     -0.442263
     53 C19         4.7640   -4.0400   -4.7760 c         1 MOL      0.780487
     54 N6          4.4250   -4.3340   -5.9930 n         1 MOL     -0.837735
     55 O11         5.5170   -3.0800   -4.7050 o         1 MOL     -0.590114
     56 H20         5.9720   -5.0540   -1.9290 hn        1 MOL      0.385637
     57 H21         4.0060   -2.9160   -2.5460 h1        1 MOL      0.005901
     58 H22         2.9900   -4.8140   -3.8770 hc        1 MOL      0.115565
     59 H23         4.4160   -5.7240   -3.5370 hc        1 MOL      0.115565
     60 H24         3.7000   -5.0330   -6.0770 hn        1 MOL      0.387163
     61 H25         4.8370   -3.8090   -6.7480 hn        1 MOL      0.387163
     62 N7          2.0140   -3.8040   -1.2500 n         1 MOL     -0.699173
     63 C20         1.0580   -3.9970   -0.1410 c3        1 MOL      0.295270
     64 C21         1.3820   -3.3220    1.1340 c         1 MOL      0.580913
     65 O12         2.3660   -2.6150    1.2580 o         1 MOL     -0.580953
     66 H26         1.8440   -2.9990   -1.8530 hn        1 MOL      0.327210
     67 H27         1.0040   -5.0760    0.0020 h1        1 MOL      0.011973
     68 H28         0.0480   -3.6580   -0.3980 h1        1 MOL      0.011973
     69 N8          0.5790   -3.5230    2.2440 n         1 MOL     -0.557649
     70 C22        -0.8120   -4.1430    2.3280 c3        1 MOL     -0.015333
     71 C23        -1.9730   -3.1410    2.4780 c         1 MOL      0.469119
     72 O13        -3.1330   -3.6050    2.5050 o         1 MOL     -0.562429
     73 C24        -0.9140   -5.1830    3.4400 c3        1 MOL      0.276267
     74 C25         0.1260   -6.3320    3.0820 c3        1 MOL     -0.431503
     75 O14        -0.6570   -4.7210    4.7450 oh        1 MOL     -0.594199
     76 H29         0.9440   -3.1800    3.1200 hn        1 MOL      0.367697
     77 H30        -1.1170   -4.6170    1.3960 h1        1 MOL      0.093796
     78 H31        -1.8830   -5.6730    3.4300 h1        1 MOL      0.030582
     79 H32        -1.2300   -5.2690    5.2940 ho        1 MOL      0.404051
     80 H33         1.1070   -5.9610    2.7640 hc        1 MOL      0.107513
     81 H34         0.1580   -7.1860    3.7580 hc        1 MOL      0.107513
     82 H35        -0.0290   -6.7260    2.0840 hc        1 MOL      0.107513
     83 N9         -1.7060   -1.8280    2.4680 n         1 MOL     -0.278308
     84 C26        -2.7570   -0.7250    2.3340 c3        1 MOL      0.012539
     85 C27        -2.6140   -0.1050    0.9360 c         1 MOL      0.359875
     86 O15        -1.5960    0.6450    0.6610 o         1 MOL     -0.545224
     87 C28        -2.6240    0.2310    3.5360 c3        1 MOL     -0.068736
     88 C29        -2.8500   -0.3010    4.9500 c3        1 MOL     -0.245959
     89 C30        -3.5050    1.5100    3.2690 c3        1 MOL     -0.260399
     90 C31        -4.3580   -0.7320    5.1520 c3        1 MOL     -0.251070
     91 H36        -0.7540   -1.5090    2.5360 hn        1 MOL      0.243039
     92 H37        -3.7590   -1.1580    2.4050 h1        1 MOL      0.173946
     93 H38        -1.5680    0.4890    3.6670 hc        1 MOL      0.034445
     94 H39        -2.7510    0.5230    5.6590 hc        1 MOL      0.106044
     95 H40        -2.1790   -1.0870    5.3010 hc        1 MOL      0.106044
     96 H41        -4.4190    1.2350    2.7570 hc        1 MOL      0.122667
     97 H42        -3.5970    2.1660    4.1420 hc        1 MOL      0.122667
     98 H43        -3.0800    2.1400    2.4850 hc        1 MOL      0.122667
     99 H44        -4.8730    0.2100    5.0160 hc        1 MOL      0.069876
    100 H45        -4.8520   -1.4890    4.5300 hc        1 MOL      0.069876
    101 H46        -4.4960   -1.0080    6.1880 hc        1 MOL      0.069876
    102 N10        -3.4910   -0.3530   -0.0160 n         1 MOL     -0.266597
    103 C32        -4.6850   -1.2670   -0.0030 c3        1 MOL      0.056804
    104 C33        -6.0020   -0.6210   -0.5320 c         1 MOL      0.419436
    105 O16        -5.9960    0.2090   -1.4490 o         1 MOL     -0.482775
    106 C34        -4.3200   -2.5680   -0.8370 c3        1 MOL      0.033741
    107 C35        -3.2760   -2.4090   -1.9010 c         1 MOL      0.543284
    108 O17        -3.7510   -2.0030   -3.0060 o         1 MOL     -0.677066
    109 O18        -2.0210   -2.6060   -1.6790 o         1 MOL     -0.677066
    110 H47        -3.4550    0.1770   -0.8780 hn        1 MOL      0.292716
    111 H48        -4.9090   -1.6590    0.9820 h1        1 MOL      0.039379
    112 H49        -5.2400   -3.0280   -1.1880 hc        1 MOL     -0.032815
    113 H50        -3.8610   -3.2350   -0.1000 hc        1 MOL     -0.032815
    114 N11        -7.1650   -1.1640   -0.0730 n         1 MOL     -0.510224
    115 C36        -8.4590   -0.7360   -0.6420 c3        1 MOL      0.572311
    116 C37        -9.3930   -0.1570    0.4550 c         1 MOL      0.121551
    117 O19        -9.3550   -0.6990    1.5990 o         1 MOL     -0.500413
    118 C38        -9.1830   -1.9100   -1.2860 c3        1 MOL     -0.253967
    119 C39       -10.5630   -1.6400   -1.8320 ca        1 MOL      0.167461
    120 C40       -11.6040   -1.8310   -0.9450 ca        1 MOL     -0.191723
    121 C41       -10.8120   -1.4550   -3.2100 ca        1 MOL     -0.191723
    122 C42       -12.9280   -1.5840   -1.3490 ca        1 MOL     -0.084482
    123 C43       -12.1320   -1.2480   -3.6070 ca        1 MOL     -0.084482
    124 C44       -13.2120   -1.2850   -2.6790 ca        1 MOL     -0.184896
    125 H51        -7.1910   -1.7460    0.7460 hn        1 MOL      0.296679
    126 H52        -8.3440    0.0730   -1.3590 h1        1 MOL     -0.058650
    127 H53        -9.1530   -2.6560   -0.4930 hc        1 MOL      0.062608
    128 H54        -8.5600   -2.3930   -2.0370 hc        1 MOL      0.062608
    129 H55       -11.3800   -2.1340    0.0670 ha        1 MOL      0.134999
    130 H56        -9.9860   -1.3830   -3.9120 ha        1 MOL      0.134999
    131 H57       -13.7350   -1.6800   -0.6380 ha        1 MOL      0.097666
    132 H58       -12.3270   -1.0500   -4.6530 ha        1 MOL      0.097666
    133 H59       -14.2240   -1.1030   -3.0060 ha        1 MOL      0.116580
    134 N12       -10.3250    0.8030    0.1430 n         1 MOL      0.139426
    135 C45       -10.4510    1.5920   -1.1040 c3        1 MOL     -0.048557
    136 C46        -9.3200    2.6120   -1.2600 c         1 MOL      0.664102
    137 O20        -9.0140    2.9090   -2.4050 o         1 MOL     -0.589080
    138 C47       -11.7670    2.3400   -0.9320 c3        1 MOL     -0.161554
    139 C48       -12.0810    2.4400    0.5130 c3        1 MOL     -0.056319
    140 C49       -11.4140    1.1840    1.0760 c3        1 MOL     -0.053963
    141 H60       -10.4910    0.9820   -2.0100 h1        1 MOL      0.026403
    142 H61       -11.6870    3.3150   -1.4160 hc        1 MOL      0.065163
    143 H62       -12.5900    1.7900   -1.3880 hc        1 MOL      0.065163
    144 H63       -11.6120    3.2560    1.0690 hc        1 MOL      0.034733
    145 H64       -13.1660    2.4150    0.6020 hc        1 MOL      0.034733
    146 H65       -11.0200    1.3950    2.0690 h1        1 MOL      0.042959
    147 H66       -12.0870    0.3390    1.2180 h1        1 MOL      0.042959
    148 N13        -8.6440    3.0450   -0.1920 n         1 MOL     -0.603669
    149 C50        -7.4670    3.9220   -0.2750 c3        1 MOL      0.316459
    150 C51        -7.6320    5.3120   -0.8860 c         1 MOL      0.428527
    151 O21        -8.0530    6.2230   -0.2130 o         1 MOL     -0.583034
    152 C52        -6.9640    4.1370    1.1390 c3        1 MOL      0.003151
    153 C53        -6.3630    2.9010    1.8240 c3        1 MOL     -0.199227
    154 C54        -6.1010    3.1310    3.3200 c         1 MOL      0.824004
    155 O22        -5.4450    4.0390    3.8300 o         1 MOL     -0.753335
    156 O23        -6.5700    2.2520    4.1170 o         1 MOL     -0.753335
    157 H67        -9.0310    2.9200    0.7270 hn        1 MOL      0.363202
    158 H68        -6.7020    3.4100   -0.8510 h1        1 MOL      0.036833
    159 H69        -7.7660    4.4710    1.7850 hc        1 MOL      0.000740
    160 H70        -6.1880    4.9050    1.0990 hc        1 MOL      0.000740
    161 H71        -5.3720    2.6850    1.4250 hc        1 MOL     -0.035486
    162 H72        -7.0310    2.0650    1.6210 hc        1 MOL     -0.035486
    163 N14        -7.2910    5.6480   -2.1170 n         1 MOL     -0.332824
    164 C55        -6.7090    4.8330   -3.1590 c3        1 MOL     -0.172609
    165 H73        -7.4430    4.6770   -3.9490 h1        1 MOL      0.082785
    166 H74        -5.8350    5.3390   -3.5710 h1        1 MOL      0.082785
    167 H75        -6.4100    3.8710   -2.7450 h1        1 MOL      0.082785
    168 H76        -7.4820    6.5570   -2.5180 hn        1 MOL      0.274496
    169 Ca1         5.6970    0.4250   -0.9160 Ca        1 MOL      1.665679
    170 O24         6.9550   -0.7520   -3.2080 oh        1 MOL     -0.818930
    171 H77         6.5590   -1.4090   -3.7910 ho        1 MOL      0.415059
    172 H78         7.8770   -0.9860   -3.1630 ho        1 MOL      0.415059
    173 O25         4.3860    2.9410   -0.9310 oh        1 MOL     -0.818930
    174 H79         4.9070    3.7160   -0.6880 ho        1 MOL      0.415059
    175 H80         3.4760    3.2250   -0.8200 ho        1 MOL      0.415059
    176 O26         3.2130   -0.4980   -0.5770 oh        1 MOL     -0.818930
    177 H81         3.2050   -1.2180    0.0490 ho        1 MOL      0.415059
    178 H82         2.3470   -0.5180   -0.9790 ho        1 MOL      0.415059
    179 O27         3.9880    0.4710   -3.2060 oh        1 MOL     -0.818930
    180 H83         3.1070    0.8310   -3.1430 ho        1 MOL      0.415059
    181 H84         4.0530    0.1500   -4.1050 ho        1 MOL      0.415059
@<TRIPOS>BOND
     1    1    2 1   
     2    1    4 1   
     3    1    5 1   
     4    1    6 1   
     5    2    3 2   
     6    2    7 1   
     7    7    8 1   
     8    7   15 1   
     9    8    9 1   
    10    8   11 1   
    11    8   16 1   
    12    9   10 2   
    13    9   19 1   
    14   11   12 1   
    15   11   17 1   
    16   11   18 1   
    17   12   13 1   
    18   12   14 1   
    19   19   20 1   
    20   19   24 1   
    21   20   21 1   
    22   20   23 1   
    23   20   25 1   
    24   21   22 2   
    25   21   29 1   
    26   23   26 1   
    27   23   27 1   
    28   23   28 1   
    29   29   30 1   
    30   29   37 1   
    31   30   31 1   
    32   30   33 1   
    33   30   38 1   
    34   31   32 2   
    35   31   41 1   
    36   33   34 1   
    37   33   39 1   
    38   33   40 1   
    39   34   35 1   
    40   34   36 1   
    41   41   42 1   
    42   41   45 1   
    43   42   43 1   
    44   42   46 1   
    45   42   47 1   
    46   43   44 2   
    47   43   48 1   
    48   48   49 1   
    49   48   56 1   
    50   49   50 1   
    51   49   52 1   
    52   49   57 1   
    53   50   51 2   
    54   50   62 1   
    55   52   53 1   
    56   52   58 1   
    57   52   59 1   
    58   53   54 1   
    59   53   55 2   
    60   54   60 1   
    61   54   61 1   
    62   62   63 1   
    63   62   66 1   
    64   63   64 1   
    65   63   67 1   
    66   63   68 1   
    67   64   65 2   
    68   64   69 1   
    69   69   70 1   
    70   69   76 1   
    71   70   71 1   
    72   70   73 1   
    73   70   77 1   
    74   71   72 2   
    75   71   83 1   
    76   73   74 1   
    77   73   75 1   
    78   73   78 1   
    79   74   80 1   
    80   74   81 1   
    81   74   82 1   
    82   75   79 1   
    83   83   84 1   
    84   83   91 1   
    85   84   85 1   
    86   84   87 1   
    87   84   92 1   
    88   85   86 2   
    89   85  102 1   
    90   87   88 1   
    91   87   89 1   
    92   87   93 1   
    93   88   90 1   
    94   88   94 1   
    95   88   95 1   
    96   89   96 1   
    97   89   97 1   
    98   89   98 1   
    99   90   99 1   
   100   90  100 1   
   101   90  101 1   
   102  102  103 1   
   103  102  110 1   
   104  103  104 1   
   105  103  106 1   
   106  103  111 1   
   107  104  105 2   
   108  104  114 1   
   109  106  107 1   
   110  106  112 1   
   111  106  113 1   
   112  107  108 1   
   113  107  109 1   
   114  114  115 1   
   115  114  125 1   
   116  115  116 1   
   117  115  118 1   
   118  115  126 1   
   119  116  117 2   
   120  116  134 1   
   121  118  119 1   
   122  118  127 1   
   123  118  128 1   
   124  119  120 ar  
   125  119  121 ar  
   126  120  122 ar  
   127  120  129 1   
   128  121  123 ar  
   129  121  130 1   
   130  122  124 ar  
   131  122  131 1   
   132  123  124 ar  
   133  123  132 1   
   134  124  133 1   
   135  134  135 1   
   136  134  140 1   
   137  135  136 1   
   138  135  138 1   
   139  135  141 1   
   140  136  137 2   
   141  136  148 1   
   142  138  139 1   
   143  138  142 1   
   144  138  143 1   
   145  139  140 1   
   146  139  144 1   
   147  139  145 1   
   148  140  146 1   
   149  140  147 1   
   150  148  149 1   
   151  148  157 1   
   152  149  150 1   
   153  149  152 1   
   154  149  158 1   
   155  150  151 2   
   156  150  163 1   
   157  152  153 1   
   158  152  159 1   
   159  152  160 1   
   160  153  154 1   
   161  153  161 1   
   162  153  162 1   
   163  154  155 1   
   164  154  156 1   
   165  163  164 1   
   166  163  168 1   
   167  164  165 1   
   168  164  166 1   
   169  164  167 1   
   170  170  171 1   
   171  170  172 1   
   172  173  174 1   
   173  173  175 1   
   174  176  177 1   
   175  176  178 1   
   176  179  180 1   
   177  179  181 1   
@<TRIPOS>SUBSTRUCTURE
     1 MOL         1 TEMP              0 ****  ****    0 ROOT
