@<TRIPOS>MOLECULE
MOL
  187   181     1     0     0
SMALL
resp


@<TRIPOS>ATOM
      1 C1          0.0070   -3.4870    3.5220 c3        1 MOL     -0.314793
      2 C2          1.3590   -2.8960    3.1640 c         1 MOL      0.551166
      3 O1          1.5870   -1.6640    3.1700 o         1 MOL     -0.537863
      4 H1         -0.0700   -3.5860    4.6040 hc        1 MOL      0.082263
      5 H2         -0.7850   -2.8300    3.1610 hc        1 MOL      0.082263
      6 H3         -0.0950   -4.4680    3.0590 hc        1 MOL      0.082263
      7 N1          2.3540   -3.7550    2.9110 n         1 MOL     -0.427231
      8 C3          3.7120   -3.2550    2.4980 c3        1 MOL      0.155530
      9 C4          3.8600   -3.2820    0.9630 c         1 MOL      0.657809
     10 O2          2.9540   -3.6590    0.2620 o         1 MOL     -0.639441
     11 C5          4.7900   -4.1370    3.2700 c3        1 MOL     -0.139657
     12 C6          5.9670   -3.2670    3.5820 c         1 MOL      0.713712
     13 O3          6.0500   -2.8860    4.7660 o         1 MOL     -0.704052
     14 O4          6.7960   -3.0110    2.6750 o         1 MOL     -0.704052
     15 H4          2.0620   -4.7220    2.8460 hn        1 MOL      0.244055
     16 H5          3.8700   -2.1950    2.7100 h1        1 MOL      0.061228
     17 H6          5.0900   -4.9450    2.6040 hc        1 MOL      0.002549
     18 H7          4.2870   -4.4440    4.1880 hc        1 MOL      0.002549
     19 N2          5.0700   -2.8820    0.3990 n         1 MOL     -0.565238
     20 C7          5.2380   -3.0070   -1.0420 c3        1 MOL      0.245402
     21 C8          6.2550   -1.9130   -1.5020 c         1 MOL      0.412932
     22 O5          5.8940   -1.0280   -2.2660 o         1 MOL     -0.484494
     23 C9          5.7030   -4.4140   -1.5070 c3        1 MOL     -0.282208
     24 H8          5.8570   -2.6240    0.9760 hn        1 MOL      0.214012
     25 H9          4.3680   -2.7510   -1.6440 h1        1 MOL      0.006093
     26 H10         5.0100   -5.2150   -1.2400 hc        1 MOL      0.072670
     27 H11         5.7790   -4.4130   -2.5970 hc        1 MOL      0.072670
     28 H12         6.6790   -4.7360   -1.1470 hc        1 MOL      0.072670
     29 N3          7.5140   -2.0320   -1.0690 n         1 MOL     -0.306335
     30 C10         8.5460   -1.1970   -1.6200 c3        1 MOL     -0.304221
     31 C11         8.5070    0.2820   -1.2840 c         1 MOL      0.517699
     32 O6          8.9570    1.1370   -2.0950 o         1 MOL     -0.506880
     33 C12         9.9300   -1.7560   -1.1730 c3        1 MOL     -0.153881
     34 C13        10.1550   -3.2120   -1.6540 c         1 MOL      0.656308
     35 O7         10.8780   -3.9240   -0.8990 o         1 MOL     -0.703533
     36 O8          9.7330   -3.6290   -2.8540 o         1 MOL     -0.703533
     37 H13         7.7120   -2.5550   -0.2300 hn        1 MOL      0.350386
     38 H14         8.4810   -1.2820   -2.7020 h1        1 MOL      0.179356
     39 H15         9.9840   -1.6800   -0.0930 hc        1 MOL      0.058402
     40 H16        10.7320   -1.2140   -1.6650 hc        1 MOL      0.058402
     41 N4          7.7940    0.6600   -0.1940 n         1 MOL     -0.277903
     42 C14         7.7570    2.0810    0.2060 c3        1 MOL     -0.208905
     43 C15         6.8440    2.8450   -0.7370 c         1 MOL      0.652788
     44 O9          7.2910    3.7360   -1.4430 o         1 MOL     -0.577539
     45 H17         7.5120   -0.0540    0.4590 hn        1 MOL      0.256696
     46 H18         8.6950    2.6390    0.1600 h1        1 MOL      0.091530
     47 H19         7.2910    2.2860    1.1700 h1        1 MOL      0.091530
     48 N5          5.5180    2.5180   -0.6860 n         1 MOL     -0.398578
     49 C16         4.5290    3.1620   -1.5600 c3        1 MOL      0.051029
     50 C17         3.9230    4.4130   -0.8320 c         1 MOL      0.298428
     51 O10         3.5070    4.3770    0.3220 o         1 MOL     -0.520075
     52 C18         3.4600    2.0430   -1.7460 c3        1 MOL     -0.078139
     53 C19         2.4890    2.3900   -2.8010 c         1 MOL      0.706758
     54 N6          1.7530    1.4460   -3.3170 n         1 MOL     -0.855208
     55 O11         2.5020    3.4780   -3.3360 o         1 MOL     -0.601746
     56 H20         5.1110    1.9750    0.0590 hn        1 MOL      0.257759
     57 H21         4.9630    3.4690   -2.5070 h1        1 MOL      0.094456
     58 H22         2.9290    1.9530   -0.8000 hc        1 MOL      0.032476
     59 H23         3.9680    1.0980   -1.9500 hc        1 MOL      0.032476
     60 H24         1.8460    0.6490   -2.7000 hn        1 MOL      0.398533
     61 H25         1.3490    1.4960   -4.2420 hn        1 MOL      0.398533
     62 N7          4.0540    5.5780   -1.4340 n         1 MOL     -0.064826
     63 C20         3.6500    6.8780   -0.8470 c3        1 MOL     -0.341672
     64 C21         2.1580    6.9780   -0.4350 c         1 MOL      0.592206
     65 O12         1.2530    6.9990   -1.3400 o         1 MOL     -0.500818
     66 H26         4.4310    5.5180   -2.3720 hn        1 MOL      0.212469
     67 H27         3.9330    7.6070   -1.6120 h1        1 MOL      0.120984
     68 H28         4.2710    7.0050    0.0390 h1        1 MOL      0.120984
     69 N8          1.8680    7.1520    0.8620 n         1 MOL     -0.267517
     70 C22         0.5210    7.4610    1.3380 c3        1 MOL     -0.645132
     71 C23        -0.5330    6.3090    1.4050 c         1 MOL      0.626565
     72 O13        -1.6880    6.5010    1.7820 o         1 MOL     -0.568011
     73 C24         0.5980    8.2620    2.6270 c3        1 MOL      0.516221
     74 C25         1.3710    7.5800    3.7650 c3        1 MOL     -0.184816
     75 O14         1.4520    9.3770    2.5110 oh        1 MOL     -0.625248
     76 H29         2.5940    7.0910    1.5600 hn        1 MOL      0.293007
     77 H30         0.0450    8.0870    0.5880 h1        1 MOL      0.238674
     78 H31        -0.3780    8.5840    2.9880 h1        1 MOL      0.043086
     79 H32         2.2290    9.0040    2.1060 ho        1 MOL      0.347456
     80 H33         2.0810    8.2350    4.2720 hc        1 MOL      0.036724
     81 H34         0.7100    7.2400    4.5630 hc        1 MOL      0.036724
     82 H35         1.9500    6.7580    3.3500 hc        1 MOL      0.036724
     83 N9         -0.0350    5.0880    1.2000 n         1 MOL     -0.299220
     84 C26        -0.8080    3.8400    1.3570 c3        1 MOL     -0.022858
     85 C27        -0.5880    2.8050    0.2460 c         1 MOL      0.464440
     86 O15         0.1870    2.9810   -0.6640 o         1 MOL     -0.453712
     87 C28        -0.3770    3.2030    2.7470 c3        1 MOL      0.250365
     88 C29         1.0840    2.7610    2.7320 c3        1 MOL     -0.176872
     89 C30        -0.6120    4.1520    3.9460 c3        1 MOL     -0.370798
     90 C31         1.2990    1.4480    3.5320 c3        1 MOL     -0.301232
     91 H36         0.9000    5.0020    0.8410 hn        1 MOL      0.250437
     92 H37        -1.8810    4.0290    1.3490 h1        1 MOL      0.063242
     93 H38        -1.0450    2.3770    2.9670 hc        1 MOL     -0.018753
     94 H39         1.7620    3.5710    3.0230 hc        1 MOL      0.094449
     95 H40         1.3770    2.4360    1.7370 hc        1 MOL      0.094449
     96 H41         0.1840    4.8900    3.9080 hc        1 MOL      0.081241
     97 H42        -1.6540    4.4960    4.0160 hc        1 MOL      0.081241
     98 H43        -0.3810    3.7150    4.9180 hc        1 MOL      0.081241
     99 H44         2.3630    1.2280    3.4280 hc        1 MOL      0.095809
    100 H45         1.0000    1.5180    4.5800 hc        1 MOL      0.095809
    101 H46         0.7080    0.7130    2.9880 hc        1 MOL      0.095809
    102 N10        -1.3570    1.7220    0.3390 n         1 MOL     -0.546363
    103 C32        -1.3770    0.5780   -0.6020 c3        1 MOL      0.452496
    104 C33        -2.6710    0.7320   -1.4440 c         1 MOL      0.542823
    105 O16        -2.6100    0.4800   -2.6460 o         1 MOL     -0.543533
    106 C34        -1.3950   -0.7140    0.1980 c3        1 MOL     -0.041157
    107 C35        -1.3190   -1.9470   -0.6540 c         1 MOL      0.589724
    108 O17        -2.1240   -2.9220   -0.4260 o         1 MOL     -0.675994
    109 O18        -0.4510   -2.0060   -1.5660 o         1 MOL     -0.675994
    110 H47        -2.0270    1.7000    1.0930 hn        1 MOL      0.224227
    111 H48        -0.4750    0.5630   -1.2300 h1        1 MOL     -0.072076
    112 H49        -2.3560   -0.8570    0.6910 hc        1 MOL     -0.000510
    113 H50        -0.6070   -0.7590    0.9490 hc        1 MOL     -0.000510
    114 N11        -3.7580    1.2350   -0.8610 n         1 MOL     -0.653675
    115 C36        -5.0500    1.6080   -1.4880 c3        1 MOL      0.488425
    116 C37        -6.1610    0.9960   -0.6520 c         1 MOL      0.130023
    117 O19        -6.1200    1.1590    0.5820 o         1 MOL     -0.425258
    118 C38        -5.1090    3.1760   -1.5830 c3        1 MOL     -0.404519
    119 C39        -6.5210    3.7180   -2.0680 ca        1 MOL      0.099235
    120 C40        -6.7800    3.8970   -3.4160 ca        1 MOL     -0.122244
    121 C41        -7.5350    4.0170   -1.1330 ca        1 MOL     -0.122244
    122 C42        -8.0110    4.3840   -3.8500 ca        1 MOL     -0.101056
    123 C43        -8.7930    4.4690   -1.5570 ca        1 MOL     -0.101056
    124 C44        -9.0360    4.5710   -2.9090 ca        1 MOL     -0.170274
    125 H51        -3.7580    1.2510    0.1540 hn        1 MOL      0.315180
    126 H52        -5.1040    1.3090   -2.5330 h1        1 MOL     -0.012868
    127 H53        -4.3800    3.4250   -2.3490 hc        1 MOL      0.156333
    128 H54        -4.9220    3.6140   -0.6040 hc        1 MOL      0.156333
    129 H55        -6.0100    3.7790   -4.1660 ha        1 MOL      0.117234
    130 H56        -7.3890    3.8740   -0.0740 ha        1 MOL      0.117234
    131 H57        -8.2000    4.5690   -4.8970 ha        1 MOL      0.108145
    132 H58        -9.5980    4.7490   -0.8940 ha        1 MOL      0.108145
    133 H59       -10.0270    4.9270   -3.1280 ha        1 MOL      0.117832
    134 N12        -7.1300    0.2250   -1.2620 n         1 MOL     -0.089727
    135 C45        -8.2230   -0.3300   -0.5680 c3        1 MOL      0.133219
    136 C46        -7.9890   -1.4270    0.4740 c         1 MOL      0.147355
    137 O20        -8.9160   -1.6590    1.2830 o         1 MOL     -0.494777
    138 C47        -9.2270   -0.8240   -1.6700 c3        1 MOL      0.033731
    139 C48        -8.9860    0.2490   -2.6900 c3        1 MOL     -0.116080
    140 C49        -7.4980    0.1970   -2.6740 c3        1 MOL     -0.009393
    141 H60        -8.7190    0.5120   -0.0780 h1        1 MOL      0.074355
    142 H61        -8.9290   -1.7770   -2.1130 hc        1 MOL      0.023138
    143 H62       -10.2570   -0.8130   -1.3150 hc        1 MOL      0.023138
    144 H63        -9.4130   -0.0210   -3.6630 hc        1 MOL      0.050586
    145 H64        -9.4600    1.1600   -2.3110 hc        1 MOL      0.050586
    146 H65        -7.0030   -0.6490   -3.1370 h1        1 MOL      0.038001
    147 H66        -7.2050    1.1710   -3.0720 h1        1 MOL      0.038001
    148 N13        -6.7690   -1.9570    0.6600 n         1 MOL     -0.078194
    149 C50        -6.4360   -2.9460    1.6740 c3        1 MOL      0.176010
    150 C51        -6.1940   -2.3480    3.0670 c         1 MOL      0.365710
    151 O21        -6.3030   -3.0600    4.0930 o         1 MOL     -0.528693
    152 C52        -5.3500   -3.8200    1.1930 c3        1 MOL      0.042617
    153 C53        -5.0670   -5.1190    2.0020 c3        1 MOL     -0.262620
    154 C54        -4.2980   -6.1290    1.2070 c         1 MOL      0.836587
    155 O22        -3.9750   -7.2040    1.7050 o         1 MOL     -0.762504
    156 O23        -3.9900   -5.9090    0.0480 o         1 MOL     -0.762504
    157 H67        -6.1310   -1.8680   -0.1140 hn        1 MOL      0.161145
    158 H68        -7.3410   -3.5200    1.8610 h1        1 MOL      0.029584
    159 H69        -4.4620   -3.1940    1.2050 hc        1 MOL     -0.061215
    160 H70        -5.5860   -4.0720    0.1520 hc        1 MOL     -0.061215
    161 H71        -5.9890   -5.5520    2.4000 hc        1 MOL      0.069807
    162 H72        -4.6060   -4.8190    2.9520 hc        1 MOL      0.069807
    163 N14        -5.9710   -1.0310    3.0780 n         1 MOL     -0.150681
    164 C55        -5.7880   -0.3680    4.3930 c3        1 MOL     -0.161713
    165 H73        -5.9630   -1.0910    5.1900 h1        1 MOL      0.084357
    166 H74        -4.7710    0.0160    4.4690 h1        1 MOL      0.084357
    167 H75        -6.4970    0.4540    4.4880 h1        1 MOL      0.084357
    168 H76        -5.8400   -0.5740    2.1910 hn        1 MOL      0.148831
    169 Ca1        -1.7620   -5.4130   -1.1840 Ca        1 MOL      1.679867
    170 O24        -1.0970   -5.9120    1.3250 oh        1 MOL     -0.818770
    171 H77        -0.2660   -6.3690    1.4300 ho        1 MOL      0.408665
    172 H78        -1.5750   -6.0850    2.1390 ho        1 MOL      0.408665
    173 O25        -3.1690   -4.0550   -3.0600 oh        1 MOL     -0.818770
    174 H79        -3.6680   -4.4930   -3.7500 ho        1 MOL      0.408665
    175 H80        -3.1470   -3.1300   -3.3450 ho        1 MOL      0.408665
    176 O26        -2.7830   -7.6290   -2.3690 oh        1 MOL     -0.818770
    177 H81        -3.6990   -7.8490   -2.2140 ho        1 MOL      0.408665
    178 H82        -2.5480   -8.1270   -3.1660 ho        1 MOL      0.408665
    179 O27         0.2860   -7.3580   -1.3540 oh        1 MOL     -0.818770
    180 H83         1.0180   -6.7420   -1.3300 ho        1 MOL      0.408665
    181 H84         0.6320   -8.1670   -0.9930 ho        1 MOL      0.408665
    182 O28        -0.4610   -5.4340   -3.5770 oh        1 MOL     -0.818770
    183 H85        -0.6110   -6.1880   -4.1410 ho        1 MOL      0.408665
    184 H86         0.0020   -4.8040   -4.1390 ho        1 MOL      0.408665
    185 O29         0.6260   -4.3270   -0.6610 oh        1 MOL     -0.818770
    186 H87         0.5250   -3.4510   -1.0330 ho        1 MOL      0.408665
    187 H88         1.4670   -4.2950   -0.1920 ho        1 MOL      0.408665
@<TRIPOS>BOND
     1    1    2 1   
     2    1    4 1   
     3    1    5 1   
     4    1    6 1   
     5    2    3 2   
     6    2    7 1   
     7    7    8 1   
     8    7   15 1   
     9    8    9 1   
    10    8   11 1   
    11    8   16 1   
    12    9   10 2   
    13    9   19 1   
    14   11   12 1   
    15   11   17 1   
    16   11   18 1   
    17   12   13 1   
    18   12   14 1   
    19   19   20 1   
    20   19   24 1   
    21   20   21 1   
    22   20   23 1   
    23   20   25 1   
    24   21   22 2   
    25   21   29 1   
    26   23   26 1   
    27   23   27 1   
    28   23   28 1   
    29   29   30 1   
    30   29   37 1   
    31   30   31 1   
    32   30   33 1   
    33   30   38 1   
    34   31   32 2   
    35   31   41 1   
    36   33   34 1   
    37   33   39 1   
    38   33   40 1   
    39   34   35 1   
    40   34   36 1   
    41   41   42 1   
    42   41   45 1   
    43   42   43 1   
    44   42   46 1   
    45   42   47 1   
    46   43   44 2   
    47   43   48 1   
    48   48   49 1   
    49   48   56 1   
    50   49   50 1   
    51   49   52 1   
    52   49   57 1   
    53   50   51 2   
    54   50   62 1   
    55   52   53 1   
    56   52   58 1   
    57   52   59 1   
    58   53   54 1   
    59   53   55 2   
    60   54   60 1   
    61   54   61 1   
    62   62   63 1   
    63   62   66 1   
    64   63   64 1   
    65   63   67 1   
    66   63   68 1   
    67   64   65 2   
    68   64   69 1   
    69   69   70 1   
    70   69   76 1   
    71   70   71 1   
    72   70   73 1   
    73   70   77 1   
    74   71   72 2   
    75   71   83 1   
    76   73   74 1   
    77   73   75 1   
    78   73   78 1   
    79   74   80 1   
    80   74   81 1   
    81   74   82 1   
    82   75   79 1   
    83   83   84 1   
    84   83   91 1   
    85   84   85 1   
    86   84   87 1   
    87   84   92 1   
    88   85   86 2   
    89   85  102 1   
    90   87   88 1   
    91   87   89 1   
    92   87   93 1   
    93   88   90 1   
    94   88   94 1   
    95   88   95 1   
    96   89   96 1   
    97   89   97 1   
    98   89   98 1   
    99   90   99 1   
   100   90  100 1   
   101   90  101 1   
   102  102  103 1   
   103  102  110 1   
   104  103  104 1   
   105  103  106 1   
   106  103  111 1   
   107  104  105 2   
   108  104  114 1   
   109  106  107 1   
   110  106  112 1   
   111  106  113 1   
   112  107  108 1   
   113  107  109 1   
   114  114  115 1   
   115  114  125 1   
   116  115  116 1   
   117  115  118 1   
   118  115  126 1   
   119  116  117 2   
   120  116  134 1   
   121  118  119 1   
   122  118  127 1   
   123  118  128 1   
   124  119  120 ar  
   125  119  121 ar  
   126  120  122 ar  
   127  120  129 1   
   128  121  123 ar  
   129  121  130 1   
   130  122  124 ar  
   131  122  131 1   
   132  123  124 ar  
   133  123  132 1   
   134  124  133 1   
   135  134  135 1   
   136  134  140 1   
   137  135  136 1   
   138  135  138 1   
   139  135  141 1   
   140  136  137 2   
   141  136  148 1   
   142  138  139 1   
   143  138  142 1   
   144  138  143 1   
   145  139  140 1   
   146  139  144 1   
   147  139  145 1   
   148  140  146 1   
   149  140  147 1   
   150  148  149 1   
   151  148  157 1   
   152  149  150 1   
   153  149  152 1   
   154  149  158 1   
   155  150  151 2   
   156  150  163 1   
   157  152  153 1   
   158  152  159 1   
   159  152  160 1   
   160  153  154 1   
   161  153  161 1   
   162  153  162 1   
   163  154  155 1   
   164  154  156 1   
   165  163  164 1   
   166  163  168 1   
   167  164  165 1   
   168  164  166 1   
   169  164  167 1   
   170  170  171 1   
   171  170  172 1   
   172  173  174 1   
   173  173  175 1   
   174  176  177 1   
   175  176  178 1   
   176  179  180 1   
   177  179  181 1   
   178  182  183 1   
   179  182  184 1   
   180  185  186 1   
   181  185  187 1   
@<TRIPOS>SUBSTRUCTURE
     1 MOL         1 TEMP              0 ****  ****    0 ROOT
