@<TRIPOS>MOLECULE
MOL
  192   187     1     0     0
SMALL
resp


@<TRIPOS>ATOM
      1 C1          4.5270   -7.2050   -2.3150 c3        1 MOL     -0.308422
      2 C2          4.3320   -5.9130   -1.4590 c         1 MOL      0.558592
      3 O1          4.2100   -5.9920   -0.2220 o         1 MOL     -0.514647
      4 H1          5.5710   -7.2840   -2.6190 hc        1 MOL      0.084651
      5 H2          4.2550   -8.0790   -1.7220 hc        1 MOL      0.084651
      6 H3          3.8940   -7.1540   -3.2000 hc        1 MOL      0.084651
      7 N1          4.2830   -4.7560   -2.0830 n         1 MOL     -0.448497
      8 C3          3.9390   -3.4980   -1.4280 c3        1 MOL      0.142161
      9 C4          2.5050   -3.1030   -1.2870 c         1 MOL      0.561096
     10 O2          2.1830   -2.3620   -0.3090 o         1 MOL     -0.546137
     11 C5          4.7180   -2.2910   -2.0300 c3        1 MOL     -0.260646
     12 C6          4.5140   -2.0410   -3.5420 c         1 MOL      0.643258
     13 O3          5.1930   -2.6780   -4.3780 o         1 MOL     -0.648602
     14 O4          3.5000   -1.4070   -3.9460 o         1 MOL     -0.648602
     15 H4          4.4980   -4.7920   -3.0690 hn        1 MOL      0.283449
     16 H5          4.2480   -3.5800   -0.3820 h1        1 MOL      0.069053
     17 H6          5.7870   -2.4400   -1.8850 hc        1 MOL      0.079988
     18 H7          4.4440   -1.4290   -1.4260 hc        1 MOL      0.079988
     19 N2          1.5100   -3.7260   -1.9930 n         1 MOL     -0.475010
     20 C7          0.1630   -3.1870   -2.0110 c3        1 MOL      0.089894
     21 C8         -0.6710   -3.5950   -0.7550 c         1 MOL      0.371863
     22 O5         -0.5000   -4.7170   -0.3200 o         1 MOL     -0.511605
     23 C9         -0.6420   -3.5690   -3.3420 c3        1 MOL      0.249679
     24 C10         0.0590   -3.3010   -4.6660 c3        1 MOL     -0.302099
     25 C11         0.3730   -1.8280   -4.8410 c3        1 MOL      0.121303
     26 C12         1.1730   -1.7960   -6.2190 c3        1 MOL     -0.153730
     27 N3          2.1360   -0.6710   -6.2730 n4        1 MOL     -0.278869
     28 H8          1.7450   -4.4440   -2.6620 hn        1 MOL      0.273430
     29 H9          0.1980   -2.0990   -1.9840 h1        1 MOL      0.121967
     30 H10        -1.5690   -3.0030   -3.3770 hc        1 MOL     -0.014695
     31 H11        -0.9270   -4.6140   -3.3470 hc        1 MOL     -0.014695
     32 H12        -0.6460   -3.5850   -5.4390 hc        1 MOL      0.066833
     33 H13         0.9870   -3.8760   -4.7110 hc        1 MOL      0.066833
     34 H14         0.9900   -1.4430   -4.0360 hc        1 MOL      0.029188
     35 H15        -0.5120   -1.1980   -4.9350 hc        1 MOL      0.029188
     36 H16         0.4580   -1.7600   -7.0440 hx        1 MOL      0.119362
     37 H17         1.7910   -2.6770   -6.4030 hx        1 MOL      0.119362
     38 H18         2.8080   -0.6960   -7.0300 hn        1 MOL      0.288294
     39 H19         1.5870    0.1760   -6.2640 hn        1 MOL      0.288294
     40 H20         2.6470   -0.7510   -5.4080 hn        1 MOL      0.288294
     41 N4         -1.5360   -2.6990   -0.1940 n         1 MOL     -0.388940
     42 C13        -1.8220   -1.2740   -0.4510 c3        1 MOL      0.073938
     43 C14        -2.3850   -0.9970   -1.8340 c         1 MOL      0.514641
     44 O6         -1.6520   -0.3500   -2.5810 o         1 MOL     -0.615678
     45 C15        -0.7550   -0.3700    0.2630 c3        1 MOL     -0.105411
     46 C16        -0.5660   -0.8360    1.7780 c         1 MOL      0.717645
     47 O7          0.5250   -0.8060    2.4630 o         1 MOL     -0.778185
     48 O8         -1.5050   -1.4400    2.3670 o         1 MOL     -0.778185
     49 H21        -1.9390   -3.0610    0.6500 hn        1 MOL      0.228367
     50 H22        -2.7580   -1.0940    0.0870 h1        1 MOL      0.045727
     51 H23        -1.1030    0.6430    0.4780 hc        1 MOL      0.064486
     52 H24         0.1470   -0.4120   -0.3440 hc        1 MOL      0.064486
     53 N5         -3.5390   -1.3960   -2.1750 n         1 MOL     -0.414571
     54 C17        -4.5810   -1.9620   -1.3300 c3        1 MOL     -0.114784
     55 C18        -5.6750   -2.7040   -2.1900 c         1 MOL      0.581811
     56 O9         -5.4920   -2.9070   -3.3760 o         1 MOL     -0.548024
     57 H25        -3.9480   -1.0510   -3.0280 hn        1 MOL      0.348714
     58 H26        -5.0170   -1.0990   -0.8470 h1        1 MOL      0.078629
     59 H27        -4.2370   -2.5930   -0.5040 h1        1 MOL      0.078629
     60 N6         -6.8580   -3.0920   -1.5650 n         1 MOL     -0.466356
     61 C19        -7.1170   -3.0930   -0.0550 c3        1 MOL      0.009066
     62 C20        -7.5700   -1.6710    0.4140 c         1 MOL      0.633651
     63 O10        -7.9000   -0.8720   -0.4620 o         1 MOL     -0.469948
     64 C21        -8.1700   -4.2150    0.2200 c3        1 MOL     -0.157102
     65 C22        -9.4790   -4.3220   -0.5830 c         1 MOL      0.759068
     66 O11        -9.4300   -4.2450   -1.7920 o         1 MOL     -0.661666
     67 O12       -10.5680   -4.4420    0.0310 o         1 MOL     -0.661666
     68 H28        -7.4950   -3.5960   -2.1580 hn        1 MOL      0.312081
     69 H29        -6.2210   -3.4120    0.4700 h1        1 MOL      0.022059
     70 H30        -8.5670   -4.0590    1.2190 hc        1 MOL      0.008766
     71 H31        -7.7470   -5.1990    0.0580 hc        1 MOL      0.008766
     72 N7         -7.4410   -1.3010    1.7150 n         1 MOL     -0.448867
     73 C23        -8.0090   -0.0080    2.2080 c3        1 MOL     -0.224600
     74 C24        -7.0540    1.1670    1.8230 c         1 MOL      0.491291
     75 O13        -7.5300    2.1640    1.2560 o         1 MOL     -0.496999
     76 H32        -6.9290   -1.8990    2.3550 hn        1 MOL      0.262192
     77 H33        -8.0350    0.0070    3.2910 h1        1 MOL      0.156712
     78 H34        -8.9880    0.2140    1.7900 h1        1 MOL      0.156712
     79 N8         -5.7540    1.0650    2.1810 n         1 MOL     -0.488125
     80 C25        -4.7990    2.1110    1.8950 c3        1 MOL      0.006866
     81 C26        -4.8480    2.3460    0.3790 c         1 MOL      0.385121
     82 O14        -5.0540    1.4570   -0.4250 o         1 MOL     -0.366778
     83 C27        -3.3590    1.7030    2.3480 c3        1 MOL      0.432489
     84 C28        -3.1390    1.5460    3.8480 c3        1 MOL     -0.160580
     85 O15        -2.4380    2.7870    2.0350 oh        1 MOL     -0.722722
     86 H35        -5.4570    0.1260    2.4020 hn        1 MOL      0.279344
     87 H36        -5.1050    3.0040    2.4370 h1        1 MOL      0.087428
     88 H37        -3.1420    0.7860    1.7990 h1        1 MOL     -0.025330
     89 H38        -1.6010    2.4040    2.2810 ho        1 MOL      0.499103
     90 H39        -3.3700    0.5580    4.2420 hc        1 MOL      0.011060
     91 H40        -2.0870    1.7250    4.0930 hc        1 MOL      0.011060
     92 H41        -3.7750    2.2490    4.3850 hc        1 MOL      0.011060
     93 N9         -4.5130    3.6000    0.0690 n         1 MOL     -0.349526
     94 C29        -4.1870    4.1410   -1.2500 c3        1 MOL     -0.048386
     95 C30        -2.6790    4.5340   -1.3270 c         1 MOL      0.558663
     96 O16        -2.3580    5.1040   -2.3630 o         1 MOL     -0.572220
     97 C31        -5.1460    5.3380   -1.5510 c3        1 MOL      0.129750
     98 C32        -5.2150    6.4750   -0.4620 c3        1 MOL      0.132743
     99 C33        -6.4970    4.7630   -1.9540 c3        1 MOL     -0.300201
    100 C34        -3.8470    7.2010   -0.2260 c3        1 MOL     -0.130355
    101 H42        -4.5370    4.2380    0.8560 hn        1 MOL      0.284183
    102 H43        -4.3680    3.3120   -1.9430 h1        1 MOL      0.094821
    103 H44        -4.7680    5.7730   -2.4760 hc        1 MOL      0.019440
    104 H45        -5.5760    5.9700    0.4320 hc        1 MOL     -0.043790
    105 H46        -5.9290    7.1900   -0.8610 hc        1 MOL     -0.043790
    106 H47        -6.3620    4.0890   -2.8000 hc        1 MOL      0.081575
    107 H48        -6.9190    4.2210   -1.1120 hc        1 MOL      0.081575
    108 H49        -7.2360    5.5080   -2.2620 hc        1 MOL      0.081575
    109 H50        -3.4020    7.5420   -1.1580 hc        1 MOL      0.034257
    110 H51        -4.1580    8.0240    0.4190 hc        1 MOL      0.034257
    111 H52        -3.2260    6.5340    0.3660 hc        1 MOL      0.034257
    112 N10        -1.8500    4.3680   -0.3130 n         1 MOL     -0.357408
    113 C35        -0.4790    4.8010   -0.3660 c3        1 MOL     -0.071314
    114 C36         0.3870    3.5860   -0.0650 c         1 MOL      0.598088
    115 O17         0.1630    2.7830    0.7800 o         1 MOL     -0.506052
    116 C37        -0.0370    5.9550    0.5360 c3        1 MOL      0.193965
    117 C38        -0.5430    6.1030    1.9460 c3        1 MOL     -0.050728
    118 O18        -0.3120    7.1410   -0.1410 oh        1 MOL     -0.653380
    119 H53        -2.1400    4.1050    0.6200 hn        1 MOL      0.223185
    120 H54        -0.2400    5.1240   -1.3860 h1        1 MOL      0.141850
    121 H55         1.0540    5.8920    0.6200 h1        1 MOL      0.043718
    122 H56        -0.0330    7.9610    0.2680 ho        1 MOL      0.413992
    123 H57        -1.4870    6.6550    1.9580 hc        1 MOL      0.022357
    124 H58        -0.7150    5.1290    2.3980 hc        1 MOL      0.022357
    125 H59         0.1680    6.4980    2.6710 hc        1 MOL      0.022357
    126 N11         1.4310    3.3140   -0.9120 n         1 MOL     -0.422943
    127 C39         2.4190    2.3180   -0.9160 c3        1 MOL      0.025236
    128 C40         3.6600    2.8200   -0.1650 c         1 MOL      0.535413
    129 O19         3.8230    4.0520    0.1750 o         1 MOL     -0.594739
    130 C41         2.6900    1.9130   -2.4030 c3        1 MOL      0.371358
    131 C42         1.6070    1.4190   -3.2210 c3        1 MOL     -0.421795
    132 O20         3.6930    0.9200   -2.5200 oh        1 MOL     -0.647158
    133 H60         1.5840    3.9230   -1.7050 hn        1 MOL      0.187131
    134 H61         2.1000    1.4660   -0.3280 h1        1 MOL      0.096066
    135 H62         2.9870    2.8750   -2.8350 h1        1 MOL     -0.011405
    136 H63         3.3720    0.1650   -3.0130 ho        1 MOL      0.342947
    137 H64         1.1830    0.4240   -3.0350 hc        1 MOL      0.099502
    138 H65         0.6920    1.9930   -3.1360 hc        1 MOL      0.099502
    139 H66         2.0590    1.4580   -4.2090 hc        1 MOL      0.099502
    140 N12         4.5900    1.9160    0.2150 n         1 MOL     -0.416862
    141 C43         5.9430    2.2940    0.7930 c3        1 MOL     -0.032661
    142 C44         6.4230    1.3840    1.9540 c         1 MOL      0.385806
    143 O21         7.6070    1.2830    2.2800 o         1 MOL     -0.532572
    144 C45         6.9940    2.4770   -0.3320 c3        1 MOL      0.020995
    145 C46         6.7920    3.6100   -1.3450 c3        1 MOL      0.046306
    146 C47         7.9710    3.8790   -2.2840 c3        1 MOL     -0.097831
    147 C48         7.8910    5.3550   -2.6450 c3        1 MOL     -0.042364
    148 N13         6.7080    5.5040   -3.5180 n4        1 MOL     -0.301577
    149 H67         4.3400    0.9450    0.0630 hn        1 MOL      0.282778
    150 H68         5.7950    3.2640    1.2800 h1        1 MOL      0.117304
    151 H69         7.1980    1.5770   -0.9030 hc        1 MOL      0.030707
    152 H70         7.9400    2.6460    0.1800 hc        1 MOL      0.030707
    153 H71         6.7940    4.4960   -0.7160 hc        1 MOL      0.021677
    154 H72         5.9240    3.4030   -1.9660 hc        1 MOL      0.021677
    155 H73         7.8940    3.2470   -3.1720 hc        1 MOL      0.057267
    156 H74         8.9110    3.7120   -1.7610 hc        1 MOL      0.057267
    157 H75         8.8350    5.5530   -3.1390 hx        1 MOL      0.114709
    158 H76         7.8710    6.0050   -1.7610 hx        1 MOL      0.114709
    159 H77         5.8290    5.4610   -3.0280 hn        1 MOL      0.270555
    160 H78         6.6750    6.3850   -4.0200 hn        1 MOL      0.270555
    161 H79         6.7270    4.7960   -4.2460 hn        1 MOL      0.270555
    162 N14         5.6200    0.4330    2.3590 n         1 MOL      0.022014
    163 C49         6.0070   -0.6750    3.2180 c3        1 MOL     -0.563751
    164 C50         6.7940   -1.7660    2.4680 c         1 MOL      0.566082
    165 O22         6.3080   -2.4960    1.6370 o         1 MOL     -0.479175
    166 C51         4.7220   -1.1140    3.9410 c3        1 MOL      0.106787
    167 C52         3.9770   -0.0710    4.7910 c3        1 MOL     -0.060626
    168 C53         2.7570   -0.6590    5.5250 c         1 MOL      0.789014
    169 O23         2.1730    0.0550    6.4290 o         1 MOL     -0.792420
    170 O24         2.1840   -1.7110    5.1890 o         1 MOL     -0.792420
    171 H80         4.6790    0.5180    1.9970 hn        1 MOL      0.181291
    172 H81         6.7760   -0.4090    3.9460 h1        1 MOL      0.177146
    173 H82         5.0520   -1.9180    4.5990 hc        1 MOL      0.049059
    174 H83         3.9550   -1.6460    3.3760 hc        1 MOL      0.049059
    175 H84         3.7360    0.6860    4.0400 hc        1 MOL      0.010204
    176 H85         4.6770    0.4260    5.4620 hc        1 MOL      0.010204
    177 N15         8.1520   -1.7750    2.6920 n         1 MOL     -0.229500
    178 C54         9.1100   -2.7000    2.0840 c3        1 MOL     -0.320514
    179 H86         9.2230   -2.4610    1.0270 h1        1 MOL      0.130079
    180 H87        10.0740   -2.6050    2.5830 h1        1 MOL      0.130079
    181 H88         8.7450   -3.7220    2.1890 h1        1 MOL      0.130079
    182 H89         8.4830   -1.1260    3.3900 hn        1 MOL      0.238650
    183 Ca1        -0.2020   -2.2900    4.3970 Ca        1 MOL      1.709473
    184 O25        -0.2450    0.1690    5.3910 oh        1 MOL     -0.816974
    185 H90         0.6220    0.3760    5.7430 ho        1 MOL      0.417409
    186 H91        -0.8410    0.3140    6.1220 ho        1 MOL      0.417409
    187 O26         1.0750   -3.9470    2.5800 oh        1 MOL     -0.816974
    188 H92         0.8160   -3.5660    1.7330 ho        1 MOL      0.417409
    189 H93         1.4120   -4.8090    2.3590 ho        1 MOL      0.417409
    190 O27         0.5910   -4.3200    6.0090 oh        1 MOL     -0.816974
    191 H94         1.1930   -5.0650    6.0050 ho        1 MOL      0.417409
    192 H95         0.1500   -4.3820    6.8600 ho        1 MOL      0.417409
@<TRIPOS>BOND
     1    1    2 1   
     2    1    4 1   
     3    1    5 1   
     4    1    6 1   
     5    2    3 2   
     6    2    7 1   
     7    7    8 1   
     8    7   15 1   
     9    8    9 1   
    10    8   11 1   
    11    8   16 1   
    12    9   10 2   
    13    9   19 1   
    14   11   12 1   
    15   11   17 1   
    16   11   18 1   
    17   12   13 1   
    18   12   14 1   
    19   19   20 1   
    20   19   28 1   
    21   20   21 1   
    22   20   23 1   
    23   20   29 1   
    24   21   22 2   
    25   21   41 1   
    26   23   24 1   
    27   23   30 1   
    28   23   31 1   
    29   24   25 1   
    30   24   32 1   
    31   24   33 1   
    32   25   26 1   
    33   25   34 1   
    34   25   35 1   
    35   26   27 1   
    36   26   36 1   
    37   26   37 1   
    38   27   38 1   
    39   27   39 1   
    40   27   40 1   
    41   41   42 1   
    42   41   49 1   
    43   42   43 1   
    44   42   45 1   
    45   42   50 1   
    46   43   44 2   
    47   43   53 1   
    48   45   46 1   
    49   45   51 1   
    50   45   52 1   
    51   46   47 1   
    52   46   48 1   
    53   53   54 1   
    54   53   57 1   
    55   54   55 1   
    56   54   58 1   
    57   54   59 1   
    58   55   56 2   
    59   55   60 1   
    60   60   61 1   
    61   60   68 1   
    62   61   62 1   
    63   61   64 1   
    64   61   69 1   
    65   62   63 2   
    66   62   72 1   
    67   64   65 1   
    68   64   70 1   
    69   64   71 1   
    70   65   66 1   
    71   65   67 1   
    72   72   73 1   
    73   72   76 1   
    74   73   74 1   
    75   73   77 1   
    76   73   78 1   
    77   74   75 2   
    78   74   79 1   
    79   79   80 1   
    80   79   86 1   
    81   80   81 1   
    82   80   83 1   
    83   80   87 1   
    84   81   82 2   
    85   81   93 1   
    86   83   84 1   
    87   83   85 1   
    88   83   88 1   
    89   84   90 1   
    90   84   91 1   
    91   84   92 1   
    92   85   89 1   
    93   93   94 1   
    94   93  101 1   
    95   94   95 1   
    96   94   97 1   
    97   94  102 1   
    98   95   96 2   
    99   95  112 1   
   100   97   98 1   
   101   97   99 1   
   102   97  103 1   
   103   98  100 1   
   104   98  104 1   
   105   98  105 1   
   106   99  106 1   
   107   99  107 1   
   108   99  108 1   
   109  100  109 1   
   110  100  110 1   
   111  100  111 1   
   112  112  113 1   
   113  112  119 1   
   114  113  114 1   
   115  113  116 1   
   116  113  120 1   
   117  114  115 2   
   118  114  126 1   
   119  116  117 1   
   120  116  118 1   
   121  116  121 1   
   122  117  123 1   
   123  117  124 1   
   124  117  125 1   
   125  118  122 1   
   126  126  127 1   
   127  126  133 1   
   128  127  128 1   
   129  127  130 1   
   130  127  134 1   
   131  128  129 2   
   132  128  140 1   
   133  130  131 1   
   134  130  132 1   
   135  130  135 1   
   136  131  137 1   
   137  131  138 1   
   138  131  139 1   
   139  132  136 1   
   140  140  141 1   
   141  140  149 1   
   142  141  142 1   
   143  141  144 1   
   144  141  150 1   
   145  142  143 2   
   146  142  162 1   
   147  144  145 1   
   148  144  151 1   
   149  144  152 1   
   150  145  146 1   
   151  145  153 1   
   152  145  154 1   
   153  146  147 1   
   154  146  155 1   
   155  146  156 1   
   156  147  148 1   
   157  147  157 1   
   158  147  158 1   
   159  148  159 1   
   160  148  160 1   
   161  148  161 1   
   162  162  163 1   
   163  162  171 1   
   164  163  164 1   
   165  163  166 1   
   166  163  172 1   
   167  164  165 2   
   168  164  177 1   
   169  166  167 1   
   170  166  173 1   
   171  166  174 1   
   172  167  168 1   
   173  167  175 1   
   174  167  176 1   
   175  168  169 1   
   176  168  170 1   
   177  177  178 1   
   178  177  182 1   
   179  178  179 1   
   180  178  180 1   
   181  178  181 1   
   182  184  185 1   
   183  184  186 1   
   184  187  188 1   
   185  187  189 1   
   186  190  191 1   
   187  190  192 1   
@<TRIPOS>SUBSTRUCTURE
     1 MOL         1 TEMP              0 ****  ****    0 ROOT
