@<TRIPOS>MOLECULE
MOL
  191   184     1     0     0
SMALL
resp


@<TRIPOS>ATOM
      1 C1         -4.6830   -0.1640   -5.9170 c3        1 MOL     -0.495003
      2 C2         -4.4880    0.0380   -4.3760 c         1 MOL      0.717711
      3 O1         -3.4020    0.0190   -3.9190 o         1 MOL     -0.590136
      4 H1         -4.7110   -1.2300   -6.1420 hc        1 MOL      0.119099
      5 H2         -5.6200    0.2980   -6.2280 hc        1 MOL      0.119099
      6 H3         -3.8540    0.2990   -6.4520 hc        1 MOL      0.119099
      7 N1         -5.6250    0.1190   -3.6880 n         1 MOL     -0.598469
      8 C3         -5.6460    0.1740   -2.2350 c3        1 MOL      0.273539
      9 C4         -5.0720   -1.0530   -1.5660 c         1 MOL      0.287948
     10 O2         -4.1390   -0.8590   -0.7940 o         1 MOL     -0.556154
     11 C5         -7.1140    0.4690   -1.7290 c3        1 MOL     -0.077539
     12 C6         -8.2440   -0.2830   -2.5190 c         1 MOL      0.641009
     13 O3         -9.2340    0.4040   -2.9430 o         1 MOL     -0.644915
     14 O4         -8.1470   -1.5180   -2.7470 o         1 MOL     -0.644915
     15 H4         -6.4940   -0.0720   -4.1800 hn        1 MOL      0.315018
     16 H5         -5.0940    1.0170   -1.8110 h1        1 MOL      0.036004
     17 H6         -7.2970    1.5320   -1.8710 hc        1 MOL      0.004026
     18 H7         -7.1730    0.2720   -0.6600 hc        1 MOL      0.004026
     19 N2         -5.6390   -2.1690   -1.8850 n         1 MOL     -0.253866
     20 C7         -5.1120   -3.4800   -1.3430 c3        1 MOL      0.223807
     21 C8         -5.5510   -3.4430    0.1140 c         1 MOL      0.427318
     22 O5         -6.7310   -3.4710    0.4310 o         1 MOL     -0.510188
     23 C9         -5.6470   -4.7610   -2.1130 c3        1 MOL     -0.487064
     24 C10        -5.0680   -4.8730   -3.5650 c3        1 MOL      0.108761
     25 C11        -5.1420   -6.3470   -4.0590 c3        1 MOL     -0.361646
     26 C12        -4.4560   -6.5000   -5.4100 c3        1 MOL      0.346473
     27 N3         -4.9010   -7.6360   -6.1730 n4        1 MOL     -0.429932
     28 H8         -6.4170   -2.0940   -2.5260 hn        1 MOL      0.165151
     29 H9         -4.0280   -3.4230   -1.3490 h1        1 MOL      0.000865
     30 H10        -6.7320   -4.6960   -2.0770 hc        1 MOL      0.182642
     31 H11        -5.3440   -5.6230   -1.5120 hc        1 MOL      0.182642
     32 H12        -4.0700   -4.4500   -3.5280 hc        1 MOL      0.049881
     33 H13        -5.6780   -4.2880   -4.2610 hc        1 MOL      0.049881
     34 H14        -6.2070   -6.5120   -4.2230 hc        1 MOL      0.115498
     35 H15        -4.6900   -7.0310   -3.3440 hc        1 MOL      0.115498
     36 H16        -3.3740   -6.4820   -5.3180 hx        1 MOL     -0.005616
     37 H17        -4.6590   -5.5530   -5.9240 hx        1 MOL     -0.005616
     38 H18        -4.9270   -8.5040   -5.6620 hn        1 MOL      0.327555
     39 H19        -5.8160   -7.4900   -6.5890 hn        1 MOL      0.327555
     40 H20        -4.3200   -7.7670   -6.9830 hn        1 MOL      0.327555
     41 N4         -4.4890   -3.2880    0.9770 n         1 MOL     -0.437233
     42 C13        -4.6910   -3.1130    2.4430 c3        1 MOL      0.153003
     43 C14        -4.8110   -1.6170    2.9370 c         1 MOL      0.494166
     44 O6         -4.4010   -1.2720    4.0240 o         1 MOL     -0.504892
     45 C15        -3.5970   -3.8840    3.2020 c3        1 MOL     -0.383616
     46 C16        -2.2090   -3.7460    2.5780 c         1 MOL      0.887262
     47 O7         -1.6440   -2.6490    2.4460 o         1 MOL     -0.753413
     48 O8         -1.6450   -4.7820    2.2590 o         1 MOL     -0.753413
     49 H21        -3.5350   -3.3190    0.6540 hn        1 MOL      0.221382
     50 H22        -5.6280   -3.5600    2.7740 h1        1 MOL      0.093634
     51 H23        -4.0430   -4.8830    3.2810 hc        1 MOL      0.088726
     52 H24        -3.4700   -3.5600    4.2390 hc        1 MOL      0.088726
     53 N5         -5.3330   -0.7810    2.0640 n         1 MOL     -0.543853
     54 C17        -5.5960    0.6430    2.2510 c3        1 MOL      0.085379
     55 C18        -6.5490    0.9280    3.3980 c         1 MOL      0.592669
     56 O9         -7.4420    0.1120    3.6910 o         1 MOL     -0.524160
     57 H25        -5.4850   -1.1470    1.1370 hn        1 MOL      0.371685
     58 H26        -6.0010    1.1350    1.3640 h1        1 MOL      0.060589
     59 H27        -4.6380    1.1380    2.4430 h1        1 MOL      0.060589
     60 N6         -6.5520    2.1430    4.0240 n         1 MOL     -0.512211
     61 C19        -5.5430    3.1700    3.9010 c3        1 MOL      0.433900
     62 C20        -5.8640    3.9010    2.5550 c         1 MOL      0.470068
     63 O10        -7.0030    4.2570    2.3060 o         1 MOL     -0.530624
     64 C21        -5.4300    4.0120    5.2550 c3        1 MOL     -0.522168
     65 C22        -5.2980    3.0330    6.4580 c         1 MOL      0.651859
     66 N7         -6.3450    2.7340    7.1300 n         1 MOL     -0.696928
     67 O11        -4.2860    2.4230    6.6630 o         1 MOL     -0.531701
     68 H28        -7.3440    2.3230    4.6210 hn        1 MOL      0.261999
     69 H29        -4.6280    2.6390    3.6570 h1        1 MOL     -0.063641
     70 H30        -6.3930    4.4960    5.3820 hc        1 MOL      0.128832
     71 H31        -4.5740    4.6950    5.3050 hc        1 MOL      0.128832
     72 H32        -7.1200    3.3350    6.8850 hn        1 MOL      0.352459
     73 H33        -6.3190    2.1630    7.9760 hn        1 MOL      0.352459
     74 N8         -4.9100    4.1300    1.6000 n         1 MOL     -0.453769
     75 C23        -3.4970    3.6960    1.7030 c3        1 MOL     -0.242839
     76 C24        -2.7160    4.1090    0.4310 c         1 MOL      0.763069
     77 O12        -3.1870    4.8940   -0.3590 o         1 MOL     -0.544123
     78 H34        -5.2010    4.7590    0.8530 hn        1 MOL      0.305323
     79 H35        -3.4070    2.6110    1.7740 h1        1 MOL      0.132418
     80 H36        -2.9970    4.2410    2.5120 h1        1 MOL      0.132418
     81 N9         -1.4520    3.6760    0.3100 n         1 MOL     -0.679912
     82 C25        -0.5550    4.1080   -0.7500 c3        1 MOL      0.106804
     83 C26         0.6830    3.2090   -0.9510 c         1 MOL      0.539281
     84 O13         0.9620    2.3100   -0.1390 o         1 MOL     -0.493704
     85 C27         0.0060    5.4340   -0.2910 c3        1 MOL     -0.149049
     86 C28         0.5910    6.3660   -1.3560 ca        1 MOL      0.021398
     87 C29         1.8610    6.9560   -1.1660 ca        1 MOL     -0.100266
     88 C30        -0.1250    6.4550   -2.5650 ca        1 MOL     -0.100266
     89 C31         2.3880    7.8280   -2.1030 ca        1 MOL     -0.320341
     90 C32         0.4270    7.3140   -3.5110 ca        1 MOL     -0.320341
     91 C33         1.6880    8.0000   -3.2980 ca        1 MOL      0.396508
     92 O14         2.2200    8.5980   -4.3620 oh        1 MOL     -0.507061
     93 H37        -1.0080    3.1670    1.0610 hn        1 MOL      0.322527
     94 H38        -1.1450    4.1560   -1.6670 h1        1 MOL      0.097702
     95 H39         0.7720    5.3820    0.4880 hc        1 MOL      0.092268
     96 H40        -0.8400    5.9720    0.1510 hc        1 MOL      0.092268
     97 H41         2.4290    6.7590   -0.2610 ha        1 MOL      0.132795
     98 H42        -1.0170    5.8620   -2.7530 ha        1 MOL      0.132795
     99 H43         3.2520    8.4440   -1.9160 ha        1 MOL      0.159533
    100 H44        -0.0890    7.3630   -4.4650 ha        1 MOL      0.159533
    101 H45         1.7550    8.4980   -5.2040 ho        1 MOL      0.372704
    102 N10         1.5190    3.5680   -1.8850 n         1 MOL     -0.429271
    103 C34         2.8420    3.0140   -2.0490 c3        1 MOL     -0.289364
    104 C35         3.8210    3.4420   -0.9570 c         1 MOL      0.662458
    105 O15         3.5910    4.4960   -0.4110 o         1 MOL     -0.488881
    106 C36         3.3560    3.3880   -3.4470 c3        1 MOL      0.235920
    107 C37         2.7800    2.5170   -4.5730 c3        1 MOL      0.065740
    108 C38         3.2730    4.8690   -3.7830 c3        1 MOL     -0.142596
    109 C39         3.5680    2.7550   -5.8820 c3        1 MOL     -0.164221
    110 H46         1.3740    4.4210   -2.3990 hn        1 MOL      0.197096
    111 H47         2.8060    1.9220   -2.0440 h1        1 MOL      0.130180
    112 H48         4.4190    3.1300   -3.4470 hc        1 MOL     -0.013702
    113 H49         1.7610    2.8230   -4.8290 hc        1 MOL     -0.000445
    114 H50         2.7360    1.4640   -4.3090 hc        1 MOL     -0.000445
    115 H51         2.2990    5.1710   -4.1720 hc        1 MOL      0.053984
    116 H52         3.5180    5.4700   -2.9120 hc        1 MOL      0.053984
    117 H53         4.1340    5.1130   -4.4010 hc        1 MOL      0.053984
    118 H54         3.0520    2.2080   -6.6670 hc        1 MOL      0.028314
    119 H55         3.5980    3.8270   -6.1120 hc        1 MOL      0.028314
    120 H56         4.5570    2.3440   -5.7170 hc        1 MOL      0.028314
    121 N11         4.8420    2.6180   -0.6620 n         1 MOL     -0.491784
    122 C40         5.7840    2.8340    0.4130 c3        1 MOL      0.068566
    123 C41         6.0490    1.5920    1.2170 c         1 MOL      0.673277
    124 O16         5.9010    0.4610    0.7490 o         1 MOL     -0.497178
    125 C42         7.0750    3.3850   -0.1980 c3        1 MOL      0.120921
    126 O17         7.5870    2.6990   -1.2630 oh        1 MOL     -0.579538
    127 H57         4.9500    1.7290   -1.1380 hn        1 MOL      0.290082
    128 H58         5.3970    3.6020    1.0800 h1        1 MOL      0.035349
    129 H59         7.8490    3.3940    0.5710 h1        1 MOL      0.008028
    130 H60         6.9620    4.4440   -0.4120 h1        1 MOL      0.008028
    131 H61         8.4220    3.1370   -1.3990 ho        1 MOL      0.415592
    132 N12         6.4530    1.7020    2.5020 n         1 MOL     -0.593752
    133 C43         6.5860    0.5880    3.4450 c3        1 MOL      0.007120
    134 C44         7.5240   -0.6340    3.0420 c         1 MOL      0.479944
    135 O18         7.2710   -1.7400    3.5390 o         1 MOL     -0.399402
    136 C45         5.1850    0.1720    3.8880 c3        1 MOL     -0.109535
    137 H62         6.5500    2.6340    2.8850 hn        1 MOL      0.318550
    138 H63         7.0410    1.0300    4.3300 h1        1 MOL      0.108299
    139 H64         4.6170    0.9310    4.4120 hc        1 MOL      0.051996
    140 H65         4.6480   -0.1700    3.0050 hc        1 MOL      0.051996
    141 H66         5.1170   -0.6560    4.5940 hc        1 MOL      0.051996
    142 N13         8.7400   -0.3850    2.4290 n         1 MOL     -0.607495
    143 C46         9.7120   -1.3730    2.0240 c3        1 MOL      0.329795
    144 C47         9.0800   -2.6660    1.3590 c         1 MOL      0.321889
    145 O19         9.4840   -3.8250    1.6240 o         1 MOL     -0.469062
    146 C48        10.5940   -1.7360    3.2130 c3        1 MOL     -0.346083
    147 H67         9.0930    0.5430    2.2270 hn        1 MOL      0.320555
    148 H68        10.3650   -0.9020    1.2970 h1        1 MOL      0.003120
    149 H69         9.9850   -2.1860    3.9860 hc        1 MOL      0.095299
    150 H70        11.2450   -2.4970    2.7770 hc        1 MOL      0.095299
    151 H71        11.2710   -0.9260    3.4960 hc        1 MOL      0.095299
    152 N14         8.0780   -2.5190    0.5230 n         1 MOL     -0.242493
    153 C49         7.3940   -3.7110   -0.1460 c3        1 MOL     -0.274781
    154 C50         7.9460   -4.0910   -1.5520 c         1 MOL      0.540606
    155 O20         7.7870   -5.2690   -1.8770 o         1 MOL     -0.523475
    156 C51         5.8400   -3.5090   -0.1150 c3        1 MOL     -0.013904
    157 C52         5.3100   -3.5910    1.2600 c3        1 MOL     -0.062405
    158 C53         3.8200   -3.5150    1.2000 c         1 MOL      0.716442
    159 O21         3.0840   -4.4870    0.9720 o         1 MOL     -0.768505
    160 O22         3.1800   -2.4220    1.3190 o         1 MOL     -0.768505
    161 H72         7.6910   -1.6070    0.3520 hn        1 MOL      0.202354
    162 H73         7.5330   -4.5960    0.4730 h1        1 MOL      0.202896
    163 H74         5.3240   -4.1700   -0.8030 hc        1 MOL      0.053796
    164 H75         5.6210   -2.5170   -0.5120 hc        1 MOL      0.053796
    165 H76         5.6800   -2.8320    1.9490 hc        1 MOL      0.037402
    166 H77         5.5740   -4.5180    1.7730 hc        1 MOL      0.037402
    167 N15         8.4700   -3.1710   -2.3700 n         1 MOL     -0.303669
    168 C54         9.1790   -3.4840   -3.5940 c3        1 MOL     -0.185037
    169 H78         8.6150   -4.2250   -4.1610 h1        1 MOL      0.096924
    170 H79         9.2920   -2.5790   -4.1910 h1        1 MOL      0.096924
    171 H80        10.1640   -3.8850   -3.3520 h1        1 MOL      0.096924
    172 H81         8.5770   -2.2450   -2.0060 hn        1 MOL      0.236201
    173 Ca1         0.5480   -3.1560    0.9670 Ca        1 MOL      1.752290
    174 O23        -0.3300   -5.4610   -0.0640 oh        1 MOL     -0.790307
    175 H82         0.0850   -6.0360   -0.7140 ho        1 MOL      0.391624
    176 H83        -1.2650   -5.6750   -0.1280 ho        1 MOL      0.391624
    177 O24         0.7790   -3.9900    3.4420 oh        1 MOL     -0.790307
    178 H84         0.0180   -4.0320    4.0080 ho        1 MOL      0.391624
    179 H85         1.4550   -3.5760    3.9790 ho        1 MOL      0.391624
    180 O25         0.3940   -0.6900   -0.2020 oh        1 MOL     -0.790307
    181 H86         0.1120   -0.5350   -1.1070 ho        1 MOL      0.391624
    182 H87        -0.1430   -0.0910    0.3180 ho        1 MOL      0.391624
    183 O26        -1.7230   -2.8280   -0.6420 oh        1 MOL     -0.790307
    184 H88        -1.6570   -3.2370   -1.5040 ho        1 MOL      0.391624
    185 H89        -2.0920   -1.9600   -0.8120 ho        1 MOL      0.391624
    186 O27         0.8270   -0.9200    2.8120 oh        1 MOL     -0.790307
    187 H90         0.5690   -0.7580    3.7160 ho        1 MOL      0.391624
    188 H91         1.2370   -0.0950    2.5250 ho        1 MOL      0.391624
    189 O28         1.4000   -3.2590   -1.6090 oh        1 MOL     -0.790307
    190 H92         2.1660   -3.0320   -2.1300 ho        1 MOL      0.391624
    191 H93         0.7300   -3.4910   -2.2440 ho        1 MOL      0.391624
@<TRIPOS>BOND
     1    1    2 1   
     2    1    4 1   
     3    1    5 1   
     4    1    6 1   
     5    2    3 2   
     6    2    7 1   
     7    7    8 1   
     8    7   15 1   
     9    8    9 1   
    10    8   11 1   
    11    8   16 1   
    12    9   10 2   
    13    9   19 1   
    14   11   12 1   
    15   11   17 1   
    16   11   18 1   
    17   12   13 1   
    18   12   14 1   
    19   19   20 1   
    20   19   28 1   
    21   20   21 1   
    22   20   23 1   
    23   20   29 1   
    24   21   22 2   
    25   21   41 1   
    26   23   24 1   
    27   23   30 1   
    28   23   31 1   
    29   24   25 1   
    30   24   32 1   
    31   24   33 1   
    32   25   26 1   
    33   25   34 1   
    34   25   35 1   
    35   26   27 1   
    36   26   36 1   
    37   26   37 1   
    38   27   38 1   
    39   27   39 1   
    40   27   40 1   
    41   41   42 1   
    42   41   49 1   
    43   42   43 1   
    44   42   45 1   
    45   42   50 1   
    46   43   44 2   
    47   43   53 1   
    48   45   46 1   
    49   45   51 1   
    50   45   52 1   
    51   46   47 1   
    52   46   48 1   
    53   53   54 1   
    54   53   57 1   
    55   54   55 1   
    56   54   58 1   
    57   54   59 1   
    58   55   56 2   
    59   55   60 1   
    60   60   61 1   
    61   60   68 1   
    62   61   62 1   
    63   61   64 1   
    64   61   69 1   
    65   62   63 2   
    66   62   74 1   
    67   64   65 1   
    68   64   70 1   
    69   64   71 1   
    70   65   66 1   
    71   65   67 2   
    72   66   72 1   
    73   66   73 1   
    74   74   75 1   
    75   74   78 1   
    76   75   76 1   
    77   75   79 1   
    78   75   80 1   
    79   76   77 2   
    80   76   81 1   
    81   81   82 1   
    82   81   93 1   
    83   82   83 1   
    84   82   85 1   
    85   82   94 1   
    86   83   84 2   
    87   83  102 1   
    88   85   86 1   
    89   85   95 1   
    90   85   96 1   
    91   86   87 ar  
    92   86   88 ar  
    93   87   89 ar  
    94   87   97 1   
    95   88   90 ar  
    96   88   98 1   
    97   89   91 ar  
    98   89   99 1   
    99   90   91 ar  
   100   90  100 1   
   101   91   92 1   
   102   92  101 1   
   103  102  103 1   
   104  102  110 1   
   105  103  104 1   
   106  103  106 1   
   107  103  111 1   
   108  104  105 2   
   109  104  121 1   
   110  106  107 1   
   111  106  108 1   
   112  106  112 1   
   113  107  109 1   
   114  107  113 1   
   115  107  114 1   
   116  108  115 1   
   117  108  116 1   
   118  108  117 1   
   119  109  118 1   
   120  109  119 1   
   121  109  120 1   
   122  121  122 1   
   123  121  127 1   
   124  122  123 1   
   125  122  125 1   
   126  122  128 1   
   127  123  124 2   
   128  123  132 1   
   129  125  126 1   
   130  125  129 1   
   131  125  130 1   
   132  126  131 1   
   133  132  133 1   
   134  132  137 1   
   135  133  134 1   
   136  133  136 1   
   137  133  138 1   
   138  134  135 2   
   139  134  142 1   
   140  136  139 1   
   141  136  140 1   
   142  136  141 1   
   143  142  143 1   
   144  142  147 1   
   145  143  144 1   
   146  143  146 1   
   147  143  148 1   
   148  144  145 2   
   149  144  152 1   
   150  146  149 1   
   151  146  150 1   
   152  146  151 1   
   153  152  153 1   
   154  152  161 1   
   155  153  154 1   
   156  153  156 1   
   157  153  162 1   
   158  154  155 2   
   159  154  167 1   
   160  156  157 1   
   161  156  163 1   
   162  156  164 1   
   163  157  158 1   
   164  157  165 1   
   165  157  166 1   
   166  158  159 1   
   167  158  160 1   
   168  167  168 1   
   169  167  172 1   
   170  168  169 1   
   171  168  170 1   
   172  168  171 1   
   173  174  175 1   
   174  174  176 1   
   175  177  178 1   
   176  177  179 1   
   177  180  181 1   
   178  180  182 1   
   179  183  184 1   
   180  183  185 1   
   181  186  187 1   
   182  186  188 1   
   183  189  190 1   
   184  189  191 1   
@<TRIPOS>SUBSTRUCTURE
     1 MOL         1 TEMP              0 ****  ****    0 ROOT
