@<TRIPOS>MOLECULE
MOL
  192   187     1     0     0
SMALL
resp


@<TRIPOS>ATOM
      1 C1         11.8660    5.1570   -2.5230 c3        1 MOL     -0.424409
      2 C2         11.7280    4.1260   -1.4320 c         1 MOL      0.634968
      3 O1         12.6120    3.3110   -1.2260 o         1 MOL     -0.612975
      4 H1         12.8750    5.5680   -2.5080 hc        1 MOL      0.114822
      5 H2         11.6780    4.6910   -3.4900 hc        1 MOL      0.114822
      6 H3         11.1450    5.9590   -2.3580 hc        1 MOL      0.114822
      7 N1         10.7140    4.2100   -0.6210 n         1 MOL     -0.093498
      8 C3         10.3170    3.2780    0.4660 c3        1 MOL     -0.328625
      9 C4          8.9770    2.4530    0.0760 c         1 MOL      0.449295
     10 O2          8.0350    2.9740   -0.5180 o         1 MOL     -0.557114
     11 C5         10.0770    4.0140    1.7730 c3        1 MOL     -0.077031
     12 C6          9.0960    5.2170    1.7290 c         1 MOL      0.735769
     13 O3          8.9450    5.8350    2.7780 o         1 MOL     -0.682593
     14 O4          8.5480    5.5070    0.6430 o         1 MOL     -0.682593
     15 H4         10.0230    4.8830   -0.9010 hn        1 MOL      0.025337
     16 H5         11.1180    2.5680    0.6610 h1        1 MOL      0.155066
     17 H6         11.0750    4.3790    2.0140 hc        1 MOL      0.065760
     18 H7          9.7980    3.2410    2.5030 hc        1 MOL      0.065760
     19 N2          9.0160    1.1210    0.3360 n         1 MOL     -0.225154
     20 C7          8.0350    0.1460   -0.1440 c3        1 MOL     -0.195216
     21 C8          6.8210    0.0260    0.7820 c         1 MOL      0.692763
     22 O5          6.9460   -0.5360    1.8310 o         1 MOL     -0.546751
     23 C9          8.8060   -1.1530   -0.4790 c3        1 MOL     -0.066079
     24 C10         7.9570   -2.3470   -0.9570 c3        1 MOL      0.142019
     25 C11         8.8640   -3.5400   -1.2230 c3        1 MOL     -0.338685
     26 C12         8.1480   -4.6450   -1.9960 c3        1 MOL      0.087553
     27 N3          9.0280   -5.7080   -2.5240 n4        1 MOL     -0.212691
     28 H8          9.8350    0.7130    0.7580 hn        1 MOL      0.268400
     29 H9          7.5650    0.5170   -1.0590 h1        1 MOL      0.089587
     30 H10         9.5570   -1.4200    0.2740 hc        1 MOL      0.039135
     31 H11         9.5340   -0.8720   -1.2450 hc        1 MOL      0.039135
     32 H12         7.4590   -2.1430   -1.9010 hc        1 MOL      0.009807
     33 H13         7.1610   -2.5940   -0.2480 hc        1 MOL      0.009807
     34 H14         9.0450   -3.9010   -0.2130 hc        1 MOL      0.136225
     35 H15         9.7660   -3.2050   -1.7270 hc        1 MOL      0.136225
     36 H16         7.6370   -4.2450   -2.8710 hx        1 MOL      0.076924
     37 H17         7.3690   -5.0660   -1.3570 hx        1 MOL      0.076924
     38 H18         8.6340   -6.5140   -2.9750 hn        1 MOL      0.244033
     39 H19         9.7830   -5.4160   -3.1250 hn        1 MOL      0.244033
     40 H20         9.4720   -6.1360   -1.7230 hn        1 MOL      0.244033
     41 N4          5.6380    0.5030    0.3740 n         1 MOL     -0.421262
     42 C13         4.3840    0.4650    1.1370 c3        1 MOL      0.113932
     43 C14         3.0690    0.3350    0.3440 c         1 MOL      0.386957
     44 O6          3.0550    0.7710   -0.8130 o         1 MOL     -0.480294
     45 C15         4.3960    1.6420    2.2200 c3        1 MOL     -0.238106
     46 C16         4.7240    2.9640    1.5890 c         1 MOL      0.774428
     47 O7          5.8790    3.4230    1.7300 o         1 MOL     -0.750062
     48 O8          3.9010    3.6040    0.9270 o         1 MOL     -0.750062
     49 H21         5.4820    0.8490   -0.5590 hn        1 MOL      0.160683
     50 H22         4.4300   -0.4690    1.6920 h1        1 MOL      0.059573
     51 H23         5.2240    1.4530    2.8910 hc        1 MOL      0.081565
     52 H24         3.4370    1.5950    2.7270 hc        1 MOL      0.081565
     53 N5          1.9520   -0.1930    0.8660 n         1 MOL     -0.255069
     54 C17         1.8900   -0.8820    2.1500 c3        1 MOL     -0.093067
     55 C18         2.4180   -2.2950    1.9870 c         1 MOL      0.594670
     56 O9          2.5890   -2.7460    0.8560 o         1 MOL     -0.536111
     57 H25         1.0870    0.0050    0.3730 hn        1 MOL      0.272352
     58 H26         0.8690   -1.1390    2.4460 h1        1 MOL      0.063096
     59 H27         2.3160   -0.3700    3.0090 h1        1 MOL      0.063096
     60 N6          2.7420   -3.0220    3.0520 n         1 MOL     -0.491702
     61 C19         3.3320   -4.3130    2.9940 c3        1 MOL      0.057369
     62 C20         2.4470   -5.3480    2.2140 c         1 MOL      0.414026
     63 O10         3.0450   -6.0880    1.4560 o         1 MOL     -0.471158
     64 C21         3.4810   -4.7940    4.4880 c3        1 MOL     -0.273502
     65 C22         4.1610   -6.1680    4.6710 c         1 MOL      0.730179
     66 O11         3.4900   -7.2260    4.5940 o         1 MOL     -0.662976
     67 O12         5.4210   -6.1540    4.8320 o         1 MOL     -0.662976
     68 H28         2.7430   -2.5340    3.9330 hn        1 MOL      0.284419
     69 H29         4.2060   -4.1320    2.3580 h1        1 MOL      0.109639
     70 H30         2.5880   -4.7990    5.1140 hc        1 MOL      0.051352
     71 H31         4.0410   -4.1220    5.1310 hc        1 MOL      0.051352
     72 N7          1.1500   -5.4170    2.5790 n         1 MOL     -0.168220
     73 C23         0.1580   -6.2890    1.9720 c3        1 MOL     -0.116773
     74 C24        -0.1730   -5.9290    0.4950 c         1 MOL      0.543390
     75 O13        -0.8750   -6.6400   -0.1920 o         1 MOL     -0.556079
     76 H32         0.8160   -4.8840    3.3720 hn        1 MOL      0.221134
     77 H33        -0.7770   -6.3050    2.5480 h1        1 MOL      0.086193
     78 H34         0.5340   -7.3130    2.0150 h1        1 MOL      0.086193
     79 N8          0.3160   -4.7320    0.0450 n         1 MOL     -0.335216
     80 C25         0.2810   -4.2340   -1.3580 c3        1 MOL      0.109717
     81 C26         0.0440   -2.6930   -1.3710 c         1 MOL      0.287623
     82 O14         0.0320   -2.1060   -0.2920 o         1 MOL     -0.382927
     83 C27         1.6440   -4.5590   -2.0020 c3        1 MOL      0.358343
     84 C28         1.9680   -6.1120   -2.0490 c3        1 MOL     -0.630375
     85 O15         1.5510   -4.1150   -3.3090 oh        1 MOL     -0.662814
     86 H35         0.7760   -4.1260    0.7110 hn        1 MOL      0.120682
     87 H36        -0.5290   -4.6940   -1.9130 h1        1 MOL      0.075642
     88 H37         2.4250   -3.9780   -1.5150 h1        1 MOL      0.012615
     89 H38         2.3710   -3.7480   -3.6310 ho        1 MOL      0.421872
     90 H39         1.1740   -6.6700   -2.5480 hc        1 MOL      0.171186
     91 H40         2.9740   -6.1760   -2.4770 hc        1 MOL      0.171186
     92 H41         1.9620   -6.6470   -1.0920 hc        1 MOL      0.171186
     93 N9         -0.2880   -2.0810   -2.5110 n         1 MOL     -0.121074
     94 C29        -0.6810   -0.6550   -2.6220 c3        1 MOL     -0.131263
     95 C30        -2.0680   -0.3740   -2.0070 c         1 MOL      0.519529
     96 O16        -2.3140    0.7030   -1.5100 o         1 MOL     -0.518870
     97 C31        -0.5940   -0.2880   -4.1120 c3        1 MOL      0.099552
     98 C32         0.8010   -0.6270   -4.7980 c3        1 MOL     -0.066459
     99 C33        -0.7890    1.1920   -4.2610 c3        1 MOL     -0.291016
    100 C34         2.0030   -0.0250   -4.0500 c3        1 MOL      0.014348
    101 H42        -0.2590   -2.6520   -3.3400 hn        1 MOL      0.189634
    102 H43         0.1210   -0.1240   -2.1000 h1        1 MOL      0.099532
    103 H44        -1.4430   -0.7640   -4.6180 hc        1 MOL      0.018231
    104 H45         0.7900   -0.1800   -5.7890 hc        1 MOL      0.009932
    105 H46         0.9080   -1.7090   -4.8000 hc        1 MOL      0.009932
    106 H47        -0.1770    1.7730   -3.5640 hc        1 MOL      0.087548
    107 H48        -0.5820    1.5110   -5.2830 hc        1 MOL      0.087548
    108 H49        -1.8240    1.4740   -4.0720 hc        1 MOL      0.087548
    109 H50         2.9070   -0.3970   -4.5070 hc        1 MOL     -0.012847
    110 H51         2.0090    1.0590   -3.9600 hc        1 MOL     -0.012847
    111 H52         2.0170   -0.4060   -3.0300 hc        1 MOL     -0.012847
    112 N10        -2.9320   -1.4140   -1.7790 n         1 MOL     -0.294552
    113 C35        -4.2220   -1.3160   -1.0450 c3        1 MOL     -0.070427
    114 C36        -5.4330   -1.9440   -1.6560 c         1 MOL      0.572908
    115 O17        -5.3430   -2.9220   -2.3930 o         1 MOL     -0.521477
    116 C37        -4.0500   -1.9850    0.3390 c3        1 MOL      0.308268
    117 C38        -4.0300   -3.5040    0.1860 c3        1 MOL     -0.310650
    118 O18        -2.8080   -1.7130    1.0020 oh        1 MOL     -0.595158
    119 H53        -2.7590   -2.2330   -2.3360 hn        1 MOL      0.180289
    120 H54        -4.4430   -0.2740   -0.8190 h1        1 MOL      0.064546
    121 H55        -4.8540   -1.7000    1.0150 h1        1 MOL      0.002559
    122 H56        -2.8080   -0.7900    1.2560 ho        1 MOL      0.393655
    123 H57        -3.3740   -3.8320   -0.6290 hc        1 MOL      0.096549
    124 H58        -3.7270   -3.9240    1.1470 hc        1 MOL      0.096549
    125 H59        -5.0320   -3.8910   -0.0120 hc        1 MOL      0.096549
    126 N11        -6.6370   -1.5450   -1.2300 n         1 MOL     -0.498720
    127 C39        -7.9060   -1.9960   -1.8170 c3        1 MOL      0.030611
    128 C40        -8.9250   -0.8710   -1.9770 c         1 MOL      0.513962
    129 O19        -9.4430   -0.7350   -3.0910 o         1 MOL     -0.542477
    130 C41        -8.4810   -3.1060   -0.9500 c3        1 MOL      0.165440
    131 C42        -9.8180   -3.5660   -1.4780 c3        1 MOL     -0.465509
    132 O20        -8.8110   -2.7580    0.3690 oh        1 MOL     -0.609168
    133 H60        -6.7490   -0.8720   -0.4770 hn        1 MOL      0.269425
    134 H61        -7.7650   -2.3930   -2.8160 h1        1 MOL      0.118974
    135 H62        -7.8280   -3.9740   -0.9220 h1        1 MOL      0.104227
    136 H63        -8.8410   -3.6180    0.8050 ho        1 MOL      0.406977
    137 H64       -10.1640   -4.5150   -1.0690 hc        1 MOL      0.123760
    138 H65       -10.5510   -2.7580   -1.5200 hc        1 MOL      0.123760
    139 H66        -9.6410   -3.9110   -2.4890 hc        1 MOL      0.123760
    140 N12        -9.2500   -0.1180   -0.9360 n         1 MOL     -0.281646
    141 C43       -10.1130    1.0360   -0.8900 c3        1 MOL      0.023519
    142 C44        -9.7030    1.9260    0.2150 c         1 MOL      0.388128
    143 O21        -9.1160    1.3930    1.2150 o         1 MOL     -0.511130
    144 C45       -11.4820    0.5180   -0.5790 c3        1 MOL     -0.164653
    145 C46       -11.7290   -0.0840    0.8380 c3        1 MOL     -0.071990
    146 C47       -13.0730   -0.8280    0.6650 c3        1 MOL      0.071744
    147 C48       -13.5220   -1.3330    2.0120 c3        1 MOL      0.056612
    148 N13       -14.7190   -2.1340    1.8930 n4        1 MOL     -0.162083
    149 H67        -8.8940   -0.3450   -0.0100 hn        1 MOL      0.255037
    150 H68       -10.1540    1.4650   -1.8920 h1        1 MOL      0.086328
    151 H69       -11.7670   -0.1560   -1.3970 hc        1 MOL      0.075432
    152 H70       -12.1350    1.3850   -0.7140 hc        1 MOL      0.075432
    153 H71       -11.9310    0.6610    1.6030 hc        1 MOL      0.073610
    154 H72       -10.9600   -0.7780    1.1820 hc        1 MOL      0.073610
    155 H73       -12.9590   -1.7440    0.0900 hc        1 MOL     -0.006208
    156 H74       -13.8660   -0.2220    0.2180 hc        1 MOL     -0.006208
    157 H75       -13.7500   -0.4290    2.5850 hx        1 MOL      0.053061
    158 H76       -12.6750   -1.8170    2.4930 hx        1 MOL      0.053061
    159 H77       -15.3960   -1.7510    1.2420 hn        1 MOL      0.210507
    160 H78       -14.4640   -3.0380    1.5060 hn        1 MOL      0.210507
    161 H79       -15.2610   -2.2660    2.7310 hn        1 MOL      0.210507
    162 N14        -9.8080    3.2460    0.1380 n         1 MOL     -0.373424
    163 C49        -9.2680    4.2210    1.1260 c3        1 MOL      0.155101
    164 C50        -7.7460    4.1470    1.3750 c         1 MOL      0.375354
    165 O22        -7.3320    4.3390    2.4820 o         1 MOL     -0.525507
    166 C51        -9.6480    5.6930    0.8080 c3        1 MOL      0.022460
    167 C52        -9.4310    6.7670    1.9130 c3        1 MOL     -0.276611
    168 C53        -9.9960    8.1200    1.4880 c         1 MOL      0.715690
    169 O23        -9.7470    8.6360    0.3680 o         1 MOL     -0.638198
    170 O24       -10.7290    8.7690    2.2860 o         1 MOL     -0.638198
    171 H80       -10.5020    3.5730   -0.5160 hn        1 MOL      0.250168
    172 H81        -9.7650    3.9950    2.0700 h1        1 MOL      0.057340
    173 H82       -10.7260    5.6440    0.6600 hc        1 MOL      0.006533
    174 H83        -9.2790    6.0870   -0.1360 hc        1 MOL      0.006533
    175 H84        -8.3820    6.7980    2.1970 hc        1 MOL      0.072756
    176 H85       -10.0020    6.4560    2.7850 hc        1 MOL      0.072756
    177 N15        -6.8970    4.0060    0.3890 n         1 MOL     -0.278649
    178 C54        -7.1080    3.9800   -1.0820 c3        1 MOL      0.036184
    179 H86        -6.3680    4.6180   -1.5660 h1        1 MOL      0.030142
    180 H87        -7.0010    2.9600   -1.4470 h1        1 MOL      0.030142
    181 H88        -8.1080    4.3460   -1.3120 h1        1 MOL      0.030142
    182 H89        -5.9540    4.1270    0.7450 hn        1 MOL      0.263245
    183 Ca1         6.2830    4.7970   -0.5100 Ca        1 MOL      1.797173
    184 O25         4.0220    5.7320   -1.6550 oh        1 MOL     -0.928433
    185 H90         3.4510    5.0000   -1.8640 ho        1 MOL      0.453696
    186 H91         3.5070    6.5120   -1.8350 ho        1 MOL      0.453696
    187 O26         5.2350    2.7400   -2.1840 oh        1 MOL     -0.928433
    188 H92         5.7740    2.3060   -2.8460 ho        1 MOL      0.453696
    189 H93         4.4530    2.1980   -2.1250 ho        1 MOL      0.453696
    190 O27         5.7600    6.7350    1.4750 oh        1 MOL     -0.928433
    191 H94         6.0290    7.1650    2.2890 ho        1 MOL      0.453696
    192 H95         4.8330    6.9520    1.3840 ho        1 MOL      0.453696
@<TRIPOS>BOND
     1    1    2 1   
     2    1    4 1   
     3    1    5 1   
     4    1    6 1   
     5    2    3 2   
     6    2    7 1   
     7    7    8 1   
     8    7   15 1   
     9    8    9 1   
    10    8   11 1   
    11    8   16 1   
    12    9   10 2   
    13    9   19 1   
    14   11   12 1   
    15   11   17 1   
    16   11   18 1   
    17   12   13 1   
    18   12   14 1   
    19   19   20 1   
    20   19   28 1   
    21   20   21 1   
    22   20   23 1   
    23   20   29 1   
    24   21   22 2   
    25   21   41 1   
    26   23   24 1   
    27   23   30 1   
    28   23   31 1   
    29   24   25 1   
    30   24   32 1   
    31   24   33 1   
    32   25   26 1   
    33   25   34 1   
    34   25   35 1   
    35   26   27 1   
    36   26   36 1   
    37   26   37 1   
    38   27   38 1   
    39   27   39 1   
    40   27   40 1   
    41   41   42 1   
    42   41   49 1   
    43   42   43 1   
    44   42   45 1   
    45   42   50 1   
    46   43   44 2   
    47   43   53 1   
    48   45   46 1   
    49   45   51 1   
    50   45   52 1   
    51   46   47 1   
    52   46   48 1   
    53   53   54 1   
    54   53   57 1   
    55   54   55 1   
    56   54   58 1   
    57   54   59 1   
    58   55   56 2   
    59   55   60 1   
    60   60   61 1   
    61   60   68 1   
    62   61   62 1   
    63   61   64 1   
    64   61   69 1   
    65   62   63 2   
    66   62   72 1   
    67   64   65 1   
    68   64   70 1   
    69   64   71 1   
    70   65   66 1   
    71   65   67 1   
    72   72   73 1   
    73   72   76 1   
    74   73   74 1   
    75   73   77 1   
    76   73   78 1   
    77   74   75 2   
    78   74   79 1   
    79   79   80 1   
    80   79   86 1   
    81   80   81 1   
    82   80   83 1   
    83   80   87 1   
    84   81   82 2   
    85   81   93 1   
    86   83   84 1   
    87   83   85 1   
    88   83   88 1   
    89   84   90 1   
    90   84   91 1   
    91   84   92 1   
    92   85   89 1   
    93   93   94 1   
    94   93  101 1   
    95   94   95 1   
    96   94   97 1   
    97   94  102 1   
    98   95   96 2   
    99   95  112 1   
   100   97   98 1   
   101   97   99 1   
   102   97  103 1   
   103   98  100 1   
   104   98  104 1   
   105   98  105 1   
   106   99  106 1   
   107   99  107 1   
   108   99  108 1   
   109  100  109 1   
   110  100  110 1   
   111  100  111 1   
   112  112  113 1   
   113  112  119 1   
   114  113  114 1   
   115  113  116 1   
   116  113  120 1   
   117  114  115 2   
   118  114  126 1   
   119  116  117 1   
   120  116  118 1   
   121  116  121 1   
   122  117  123 1   
   123  117  124 1   
   124  117  125 1   
   125  118  122 1   
   126  126  127 1   
   127  126  133 1   
   128  127  128 1   
   129  127  130 1   
   130  127  134 1   
   131  128  129 2   
   132  128  140 1   
   133  130  131 1   
   134  130  132 1   
   135  130  135 1   
   136  131  137 1   
   137  131  138 1   
   138  131  139 1   
   139  132  136 1   
   140  140  141 1   
   141  140  149 1   
   142  141  142 1   
   143  141  144 1   
   144  141  150 1   
   145  142  143 2   
   146  142  162 1   
   147  144  145 1   
   148  144  151 1   
   149  144  152 1   
   150  145  146 1   
   151  145  153 1   
   152  145  154 1   
   153  146  147 1   
   154  146  155 1   
   155  146  156 1   
   156  147  148 1   
   157  147  157 1   
   158  147  158 1   
   159  148  159 1   
   160  148  160 1   
   161  148  161 1   
   162  162  163 1   
   163  162  171 1   
   164  163  164 1   
   165  163  166 1   
   166  163  172 1   
   167  164  165 2   
   168  164  177 1   
   169  166  167 1   
   170  166  173 1   
   171  166  174 1   
   172  167  168 1   
   173  167  175 1   
   174  167  176 1   
   175  168  169 1   
   176  168  170 1   
   177  177  178 1   
   178  177  182 1   
   179  178  179 1   
   180  178  180 1   
   181  178  181 1   
   182  184  185 1   
   183  184  186 1   
   184  187  188 1   
   185  187  189 1   
   186  190  191 1   
   187  190  192 1   
@<TRIPOS>SUBSTRUCTURE
     1 MOL         1 TEMP              0 ****  ****    0 ROOT
