@<TRIPOS>MOLECULE
MOL
  194   186     1     0     0
SMALL
resp


@<TRIPOS>ATOM
      1 C1         -3.8840    1.6020   -4.1760 c3        1 MOL     -0.240820
      2 C2         -4.8360    1.3270   -2.9690 c         1 MOL      0.830846
      3 O1         -4.4690    0.8540   -1.9320 o         1 MOL     -0.671556
      4 H1         -3.2490    2.4580   -3.9480 hc        1 MOL      0.048793
      5 H2         -3.2620    0.7250   -4.3550 hc        1 MOL      0.048793
      6 H3         -4.4760    1.8160   -5.0650 hc        1 MOL      0.048793
      7 N1         -6.1140    1.5770   -3.1530 n         1 MOL     -0.634191
      8 C3         -7.2970    1.1810   -2.3030 c3        1 MOL     -0.010735
      9 C4         -7.3860   -0.3300   -1.9700 c         1 MOL      0.436074
     10 O2         -8.0770   -0.7720   -1.0160 o         1 MOL     -0.451679
     11 C5         -7.3940    2.1260   -1.0650 c3        1 MOL     -0.298155
     12 C6         -7.0670    3.6170   -1.1270 c         1 MOL      0.764466
     13 O3         -7.4080    4.2870   -2.1610 o         1 MOL     -0.668456
     14 O4         -6.5090    4.2520   -0.2110 o         1 MOL     -0.668456
     15 H4         -6.3790    1.9630   -4.0450 hn        1 MOL      0.331071
     16 H5         -8.1500    1.4870   -2.9040 h1        1 MOL      0.118423
     17 H6         -6.7030    1.8200   -0.2730 hc        1 MOL      0.109248
     18 H7         -8.3450    2.0890   -0.5360 hc        1 MOL      0.109248
     19 N2         -6.7380   -1.2010   -2.8060 n         1 MOL     -0.379130
     20 C7         -6.5610   -2.6170   -2.5550 c3        1 MOL     -0.079580
     21 C8         -5.7750   -2.9300   -1.2550 c         1 MOL      0.714964
     22 O5         -5.8870   -4.0000   -0.7470 o         1 MOL     -0.585344
     23 C9         -5.7760   -3.1810   -3.7180 c3        1 MOL     -0.287829
     24 C10        -6.7410   -3.2760   -4.8860 c3        1 MOL      0.237213
     25 C11        -6.0140   -3.6410   -6.1550 c3        1 MOL     -0.102947
     26 C12        -6.8450   -3.3460   -7.4490 c3        1 MOL      0.007859
     27 N3         -8.1190   -4.1890   -7.6390 n4        1 MOL     -0.251754
     28 H8         -6.3600   -0.6820   -3.5800 hn        1 MOL      0.235267
     29 H9         -7.4830   -3.1630   -2.3850 h1        1 MOL      0.105735
     30 H10        -5.4000   -4.1550   -3.4260 hc        1 MOL      0.101348
     31 H11        -4.9290   -2.5400   -3.9460 hc        1 MOL      0.101348
     32 H12        -7.2530   -2.3140   -4.9930 hc        1 MOL     -0.027051
     33 H13        -7.4920   -4.0550   -4.7950 hc        1 MOL     -0.027051
     34 H14        -5.9080   -4.7260   -6.1610 hc        1 MOL      0.055241
     35 H15        -5.0260   -3.1800   -6.2140 hc        1 MOL      0.055241
     36 H16        -6.2000   -3.4500   -8.3210 hx        1 MOL      0.073421
     37 H17        -7.1060   -2.2850   -7.4240 hx        1 MOL      0.073421
     38 H18        -8.5320   -4.1250   -8.5560 hn        1 MOL      0.247705
     39 H19        -7.7700   -5.1320   -7.6820 hn        1 MOL      0.247705
     40 H20        -8.7690   -4.0490   -6.8880 hn        1 MOL      0.247705
     41 N4         -5.1540   -1.9210   -0.6140 n         1 MOL     -0.664526
     42 C13        -4.5720   -1.9740    0.6950 c3        1 MOL      0.258947
     43 C14        -5.5310   -1.4460    1.7260 c         1 MOL      0.630219
     44 O6         -6.0560   -0.3290    1.6990 o         1 MOL     -0.493192
     45 C15        -3.1460   -1.3970    0.6340 c3        1 MOL     -0.086369
     46 C16        -2.2720   -1.8250    1.7960 c         1 MOL      0.814805
     47 O7         -1.4810   -2.7330    1.7050 o         1 MOL     -0.751444
     48 O8         -2.5110   -1.2270    2.8530 o         1 MOL     -0.751444
     49 H21        -5.2840   -1.0450   -1.1020 hn        1 MOL      0.362229
     50 H22        -4.4210   -3.0080    1.0230 h1        1 MOL     -0.017348
     51 H23        -3.1850   -0.3120    0.5480 hc        1 MOL      0.016615
     52 H24        -2.5530   -1.7280   -0.2130 hc        1 MOL      0.016615
     53 N5         -5.6510   -2.2040    2.8540 n         1 MOL     -0.492409
     54 C17        -6.4450   -1.6830    3.9140 c3        1 MOL     -0.156880
     55 C18        -6.0000   -0.4470    4.6390 c         1 MOL      0.554374
     56 O9         -6.7000    0.0090    5.5140 o         1 MOL     -0.553820
     57 H25        -5.0930   -3.0310    3.0050 hn        1 MOL      0.340801
     58 H26        -6.4250   -2.5110    4.6200 h1        1 MOL      0.110321
     59 H27        -7.4940   -1.5700    3.6500 h1        1 MOL      0.110321
     60 N6         -4.7740    0.0530    4.2780 n         1 MOL     -0.293045
     61 C19        -4.2170    1.3280    4.8060 c3        1 MOL      0.253679
     62 C20        -3.9250    2.2660    3.6640 c         1 MOL      0.571119
     63 O10        -3.3630    3.2920    3.9930 o         1 MOL     -0.567224
     64 C21        -3.0310    1.0770    5.7580 c3        1 MOL     -0.322166
     65 C22        -3.4330    0.2070    6.9520 c         1 MOL      0.685812
     66 N7         -3.9080    0.7760    8.0330 n         1 MOL     -0.816129
     67 O11        -3.3530   -0.9380    6.9290 o         1 MOL     -0.544757
     68 H28        -4.2850   -0.4860    3.5840 hn        1 MOL      0.180999
     69 H29        -5.0500    1.8440    5.2940 h1        1 MOL      0.001289
     70 H30        -2.7840    2.0700    6.1520 hc        1 MOL      0.062586
     71 H31        -2.2370    0.5910    5.1950 hc        1 MOL      0.062586
     72 H32        -3.8920    1.7850    8.0570 hn        1 MOL      0.365137
     73 H33        -4.2570    0.2150    8.7900 hn        1 MOL      0.365137
     74 N8         -4.1370    1.8640    2.4050 n         1 MOL     -0.358470
     75 C23        -3.7020    2.6330    1.2580 c3        1 MOL     -0.076915
     76 C24        -2.1890    2.8190    0.8940 c         1 MOL      0.671674
     77 O12        -1.3910    2.1350    1.5170 o         1 MOL     -0.542563
     78 H34        -4.4570    0.9180    2.2300 hn        1 MOL      0.113451
     79 H35        -4.1010    3.6390    1.4220 h1        1 MOL      0.115881
     80 H36        -4.1160    2.1270    0.3870 h1        1 MOL      0.115881
     81 N9         -1.8950    3.6860   -0.0620 n         1 MOL     -0.689001
     82 C25        -0.4940    4.0330   -0.4680 c3        1 MOL      0.362485
     83 C26         0.3350    2.8170   -0.8910 c         1 MOL      0.281611
     84 O13        -0.1640    1.8480   -1.4110 o         1 MOL     -0.476400
     85 C27        -0.6500    5.1610   -1.5410 c3        1 MOL     -0.054300
     86 C28         0.7200    5.7470   -1.8860 ca        1 MOL     -0.123065
     87 C29         1.6690    6.1610   -0.9170 ca        1 MOL     -0.060171
     88 C30         1.2460    5.6560   -3.2320 ca        1 MOL     -0.060171
     89 C31         3.0260    6.4170   -1.2180 ca        1 MOL     -0.311788
     90 C32         2.5700    6.1280   -3.5810 ca        1 MOL     -0.311788
     91 C33         3.4940    6.4620   -2.5480 ca        1 MOL      0.382295
     92 O14         4.8030    6.7070   -2.7850 oh        1 MOL     -0.516386
     93 H37        -2.6220    4.2490   -0.4880 hn        1 MOL      0.321958
     94 H38        -0.0120    4.6030    0.3270 h1        1 MOL     -0.000793
     95 H39        -1.3170    5.9440   -1.1900 hc        1 MOL      0.087957
     96 H40        -1.1580    4.8550   -2.4490 hc        1 MOL      0.087957
     97 H41         1.4460    6.2280    0.1390 ha        1 MOL      0.116856
     98 H42         0.6250    5.2880   -4.0350 ha        1 MOL      0.116856
     99 H43         3.6610    6.7890   -0.4320 ha        1 MOL      0.156334
    100 H44         2.9150    5.9640   -4.5910 ha        1 MOL      0.156334
    101 H45         4.9150    6.7810   -3.7330 ho        1 MOL      0.398652
    102 N10         1.6080    2.9290   -0.7510 n         1 MOL     -0.307543
    103 C34         2.5620    1.8090   -1.1640 c3        1 MOL     -0.056817
    104 C35         3.6910    1.7380   -0.0980 c         1 MOL      0.434037
    105 O15         4.2100    0.6690    0.2110 o         1 MOL     -0.420429
    106 C36         3.2320    1.9400   -2.5590 c3        1 MOL      0.210809
    107 C37         2.4280    1.8520   -3.8780 c3        1 MOL     -0.214351
    108 C38         4.5680    1.1390   -2.7680 c3        1 MOL     -0.680661
    109 C39         3.0400    2.5330   -5.0870 c3        1 MOL     -0.091961
    110 H46         2.0330    3.7820   -0.4210 hn        1 MOL      0.154327
    111 H47         2.0720    0.8440   -1.1410 h1        1 MOL      0.134574
    112 H48         3.5690    2.9680   -2.4720 hc        1 MOL      0.000104
    113 H49         1.5610    2.4460   -3.5990 hc        1 MOL      0.117556
    114 H50         2.1570    0.8440   -4.2080 hc        1 MOL      0.117556
    115 H51         4.3320    0.0760   -2.6760 hc        1 MOL      0.174496
    116 H52         5.1300    1.4070   -3.6610 hc        1 MOL      0.174496
    117 H53         5.3130    1.3990   -2.0280 hc        1 MOL      0.174496
    118 H54         3.9750    2.0260   -5.3160 hc        1 MOL      0.030257
    119 H55         2.4200    2.5040   -5.9860 hc        1 MOL      0.030257
    120 H56         3.3210    3.5530   -4.8210 hc        1 MOL      0.030257
    121 N11         4.1580    2.9230    0.3910 n         1 MOL     -0.360039
    122 C40         5.0550    3.1130    1.5410 c3        1 MOL      0.099138
    123 C41         6.4750    2.5310    1.2600 c         1 MOL      0.279248
    124 O16         7.1900    2.0840    2.1860 o         1 MOL     -0.482154
    125 C42         5.2120    4.5650    1.8610 c3        1 MOL      0.224921
    126 O17         3.9830    5.2420    2.0070 oh        1 MOL     -0.576896
    127 H57         3.9820    3.7580   -0.1490 hn        1 MOL      0.291501
    128 H58         4.6900    2.6510    2.4530 h1        1 MOL      0.081847
    129 H59         5.8200    4.9690    1.0470 h1        1 MOL      0.003326
    130 H60         5.7730    4.5920    2.7880 h1        1 MOL      0.003326
    131 H61         4.1740    6.1300    2.3440 ho        1 MOL      0.402351
    132 N12         6.8390    2.3020   -0.0030 n         1 MOL     -0.224471
    133 C43         8.0340    1.6070   -0.4900 c3        1 MOL      0.108999
    134 C44         8.3820    0.2240    0.1750 c         1 MOL      0.497019
    135 O18         9.5490   -0.1930    0.0670 o         1 MOL     -0.508589
    136 C45         9.2800    2.4920   -0.3870 c3        1 MOL     -0.411751
    137 H62         6.2870    2.7310   -0.7280 hn        1 MOL      0.217919
    138 H63         7.8100    1.3410   -1.5200 h1        1 MOL      0.072485
    139 H64         9.5100    2.7430    0.6490 hc        1 MOL      0.122507
    140 H65        10.1290    1.9730   -0.8110 hc        1 MOL      0.122507
    141 H66         9.1290    3.4070   -0.9560 hc        1 MOL      0.122507
    142 N13         7.3520   -0.4910    0.6530 n         1 MOL     -0.458935
    143 C46         7.4590   -1.8480    1.0020 c3        1 MOL      0.383590
    144 C47         6.7400   -2.7250   -0.0560 c         1 MOL      0.329181
    145 O19         5.9780   -2.2450   -0.8550 o         1 MOL     -0.423506
    146 C48         6.8750   -1.9460    2.4070 c3        1 MOL     -0.010294
    147 H67         6.4720    0.0020    0.6970 hn        1 MOL      0.184065
    148 H68         8.5160   -2.0580    1.1050 h1        1 MOL     -0.029388
    149 H69         7.2940   -1.2550    3.1320 hc        1 MOL      0.001887
    150 H70         5.7830   -1.8570    2.4030 hc        1 MOL      0.001887
    151 H71         7.1700   -2.8720    2.9120 hc        1 MOL      0.001887
    152 N14         6.8730   -4.0760    0.0500 n         1 MOL     -0.441614
    153 C49         6.3650   -4.9820   -0.9090 c3        1 MOL     -0.189628
    154 C50         6.8710   -4.8750   -2.3790 c         1 MOL      0.502748
    155 O20         6.2540   -5.3750   -3.3130 o         1 MOL     -0.511366
    156 C51         4.8310   -5.2450   -0.7470 c3        1 MOL      0.378742
    157 C52         4.5180   -5.9310    0.5830 c3        1 MOL      0.079904
    158 C53         3.0190   -5.9330    0.8070 c         1 MOL      0.617868
    159 O21         2.4400   -7.0360    0.9990 o         1 MOL     -0.688751
    160 O22         2.3510   -4.8580    0.7570 o         1 MOL     -0.688751
    161 H72         7.4350   -4.3760    0.8310 hn        1 MOL      0.290605
    162 H73         6.7620   -5.9760   -0.7210 h1        1 MOL      0.101462
    163 H74         4.3980   -5.8990   -1.5130 hc        1 MOL     -0.084322
    164 H75         4.3000   -4.2920   -0.7090 hc        1 MOL     -0.084322
    165 H76         4.7960   -5.2580    1.3960 hc        1 MOL     -0.084169
    166 H77         4.9280   -6.9430    0.6790 hc        1 MOL     -0.084169
    167 N15         7.9700   -4.1870   -2.6480 n         1 MOL     -0.300062
    168 C54         8.4010   -3.8460   -4.0160 c3        1 MOL     -0.218317
    169 H78         9.3730   -3.3540   -3.9770 h1        1 MOL      0.111612
    170 H79         8.4800   -4.7560   -4.6110 h1        1 MOL      0.111612
    171 H80         7.6730   -3.1760   -4.4710 h1        1 MOL      0.111612
    172 H81         8.4340   -3.6790   -1.9160 hn        1 MOL      0.244169
    173 Ca1         1.2190   -2.6020    1.7080 Ca        1 MOL      1.802616
    174 O23         2.5220   -0.3190    2.5470 oh        1 MOL     -0.868018
    175 H82         3.3980    0.0270    2.3680 ho        1 MOL      0.421336
    176 H83         2.1930    0.2290    3.2640 ho        1 MOL      0.421336
    177 O24         3.2710   -1.7850    0.1350 oh        1 MOL     -0.868018
    178 H84         4.0140   -2.2950   -0.1740 ho        1 MOL      0.421336
    179 H85         3.5870   -0.8770    0.1300 ho        1 MOL      0.421336
    180 O25        -0.0000   -1.3210    3.7650 oh        1 MOL     -0.868018
    181 H86         0.1960   -0.9700    4.6330 ho        1 MOL      0.421336
    182 H87        -0.9100   -1.0630    3.5920 ho        1 MOL      0.421336
    183 O26         0.4510   -4.9650    2.7210 oh        1 MOL     -0.868018
    184 H88         0.7560   -5.4870    1.9750 ho        1 MOL      0.421336
    185 H89         0.3030   -5.5980    3.4210 ho        1 MOL      0.421336
    186 O27         3.1300   -2.8870    3.8300 oh        1 MOL     -0.868018
    187 H90         3.6010   -2.2440    4.3650 ho        1 MOL      0.421336
    188 H91         3.4280   -3.7350    4.1610 ho        1 MOL      0.421336
    189 O28         0.1760   -2.7090   -0.7600 oh        1 MOL     -0.868018
    190 H92        -0.1490   -1.8470   -1.0160 ho        1 MOL      0.421336
    191 H93        -0.2630   -3.3150   -1.3470 ho        1 MOL      0.421336
    192 O29         0.1620   -0.0650    0.7260 oh        1 MOL     -0.868018
    193 H94         0.2000    0.5210    1.4830 ho        1 MOL      0.421336
    194 H95        -0.2430    0.4630    0.0350 ho        1 MOL      0.421336
@<TRIPOS>BOND
     1    1    2 1   
     2    1    4 1   
     3    1    5 1   
     4    1    6 1   
     5    2    3 2   
     6    2    7 1   
     7    7    8 1   
     8    7   15 1   
     9    8    9 1   
    10    8   11 1   
    11    8   16 1   
    12    9   10 2   
    13    9   19 1   
    14   11   12 1   
    15   11   17 1   
    16   11   18 1   
    17   12   13 1   
    18   12   14 1   
    19   19   20 1   
    20   19   28 1   
    21   20   21 1   
    22   20   23 1   
    23   20   29 1   
    24   21   22 2   
    25   21   41 1   
    26   23   24 1   
    27   23   30 1   
    28   23   31 1   
    29   24   25 1   
    30   24   32 1   
    31   24   33 1   
    32   25   26 1   
    33   25   34 1   
    34   25   35 1   
    35   26   27 1   
    36   26   36 1   
    37   26   37 1   
    38   27   38 1   
    39   27   39 1   
    40   27   40 1   
    41   41   42 1   
    42   41   49 1   
    43   42   43 1   
    44   42   45 1   
    45   42   50 1   
    46   43   44 2   
    47   43   53 1   
    48   45   46 1   
    49   45   51 1   
    50   45   52 1   
    51   46   47 1   
    52   46   48 1   
    53   53   54 1   
    54   53   57 1   
    55   54   55 1   
    56   54   58 1   
    57   54   59 1   
    58   55   56 2   
    59   55   60 1   
    60   60   61 1   
    61   60   68 1   
    62   61   62 1   
    63   61   64 1   
    64   61   69 1   
    65   62   63 2   
    66   62   74 1   
    67   64   65 1   
    68   64   70 1   
    69   64   71 1   
    70   65   66 1   
    71   65   67 2   
    72   66   72 1   
    73   66   73 1   
    74   74   75 1   
    75   74   78 1   
    76   75   76 1   
    77   75   79 1   
    78   75   80 1   
    79   76   77 2   
    80   76   81 1   
    81   81   82 1   
    82   81   93 1   
    83   82   83 1   
    84   82   85 1   
    85   82   94 1   
    86   83   84 2   
    87   83  102 1   
    88   85   86 1   
    89   85   95 1   
    90   85   96 1   
    91   86   87 ar  
    92   86   88 ar  
    93   87   89 ar  
    94   87   97 1   
    95   88   90 ar  
    96   88   98 1   
    97   89   91 ar  
    98   89   99 1   
    99   90   91 ar  
   100   90  100 1   
   101   91   92 1   
   102   92  101 1   
   103  102  103 1   
   104  102  110 1   
   105  103  104 1   
   106  103  106 1   
   107  103  111 1   
   108  104  105 2   
   109  104  121 1   
   110  106  107 1   
   111  106  108 1   
   112  106  112 1   
   113  107  109 1   
   114  107  113 1   
   115  107  114 1   
   116  108  115 1   
   117  108  116 1   
   118  108  117 1   
   119  109  118 1   
   120  109  119 1   
   121  109  120 1   
   122  121  122 1   
   123  121  127 1   
   124  122  123 1   
   125  122  125 1   
   126  122  128 1   
   127  123  124 2   
   128  123  132 1   
   129  125  126 1   
   130  125  129 1   
   131  125  130 1   
   132  126  131 1   
   133  132  133 1   
   134  132  137 1   
   135  133  134 1   
   136  133  136 1   
   137  133  138 1   
   138  134  135 2   
   139  134  142 1   
   140  136  139 1   
   141  136  140 1   
   142  136  141 1   
   143  142  143 1   
   144  142  147 1   
   145  143  144 1   
   146  143  146 1   
   147  143  148 1   
   148  144  145 2   
   149  144  152 1   
   150  146  149 1   
   151  146  150 1   
   152  146  151 1   
   153  152  153 1   
   154  152  161 1   
   155  153  154 1   
   156  153  156 1   
   157  153  162 1   
   158  154  155 2   
   159  154  167 1   
   160  156  157 1   
   161  156  163 1   
   162  156  164 1   
   163  157  158 1   
   164  157  165 1   
   165  157  166 1   
   166  158  159 1   
   167  158  160 1   
   168  167  168 1   
   169  167  172 1   
   170  168  169 1   
   171  168  170 1   
   172  168  171 1   
   173  174  175 1   
   174  174  176 1   
   175  177  178 1   
   176  177  179 1   
   177  180  181 1   
   178  180  182 1   
   179  183  184 1   
   180  183  185 1   
   181  186  187 1   
   182  186  188 1   
   183  189  190 1   
   184  189  191 1   
   185  192  193 1   
   186  192  194 1   
@<TRIPOS>SUBSTRUCTURE
     1 MOL         1 TEMP              0 ****  ****    0 ROOT
